                                   MODFLOW 6
                U.S. GEOLOGICAL SURVEY MODULAR HYDROLOGIC MODEL
                        VERSION 6.4.1 Release 12/09/2022

   MODFLOW 6 compiled Dec 10 2022 05:57:01 with Intel(R) Fortran Intel(R) 64
   Compiler Classic for applications running on Intel(R) 64, Version 2021.7.0
                             Build 20220726_000000

This software has been approved for release by the U.S. Geological 
Survey (USGS). Although the software has been subjected to rigorous 
review, the USGS reserves the right to update the software as needed 
pursuant to further analysis and review. No warranty, expressed or 
implied, is made by the USGS or the U.S. Government as to the 
functionality of the software and related material nor shall the 
fact of release constitute any such warranty. Furthermore, the 
software is released on condition that neither the USGS nor the U.S. 
Government shall be held liable for any damages resulting from its 
authorized or unauthorized use. Also refer to the USGS Water 
Resources Software User Rights Notice for complete use, copyright, 
and distribution information.


As a work of the United States Government, this USGS product is 
in the public domain within the United States. You can copy, 
modify, distribute, and perform the work, even for commercial 
purposes, all without asking permission. Additionally, USGS 
waives copyright and related rights in the work worldwide 
through CC0 1.0 Universal Public Domain Dedication 
(https://creativecommons.org/publicdomain/zero/1.0/).

The following GNU Lesser General Public License (LGPL) libraries
are used in this USGS product:

    SPARSKIT version 2.0
      ilut, luson, and qsplit 
      (https://www-users.cse.umn.edu/~saad/software/SPARSKIT/)

    RCM - Reverse Cuthill McKee Ordering
      (https://people.math.sc.edu/Burkardt/f_src/rcm/rcm.html)

    BLAS - Basic Linear Algebra Subprograms Level 1
      (https://people.math.sc.edu/Burkardt/f_src/blas1_d/blas1_d.html)

    SPARSEKIT - Sparse Matrix Utility Package
      amux, dperm, dvperm, rperm, and cperm
      (https://people.sc.fsu.edu/~jburkardt/f77_src/sparsekit/sparsekit.html)

The following BSD-3 License libraries are used in this USGS product:

    Modern Fortran DAG Library
      Copyright (c) 2018, Jacob Williams
      All rights reserved.
      (https://github.com/jacobwilliams/daglib)

MODFLOW 6 compiler options: /O2 /heap-arrays:0 /fpe:0 /traceback /nologo /fpp
/c /module:win64\mod_mf6\ /object:win64\obj_mf6\

System command used to initiate simulation:
mf6

MODFLOW was compiled using uniform precision.

Real Variables
  KIND: 8
  TINY (smallest non-zero value):    2.225074-308
  HUGE (largest value):    1.797693+308
  PRECISION: 15
  SIZE IN BITS: 64

Integer Variables
  KIND: 4
  HUGE (largest value): 2147483647
  SIZE IN BITS: 32

Long Integer Variables
  KIND: 8
  HUGE (largest value): 9223372036854775807
  SIZE IN BITS: 64

Logical Variables
  KIND: 4
  SIZE IN BITS: 32
 

 OPENED mfsim.nam
 FILE TYPE:NAM   UNIT 1001   STATUS:OLD                 
 FORMAT:FORMATTED              ACCESS:SEQUENTIAL          
 ACTION:READ                

 # File generated by Flopy version 3.3.6 on 03/03/2023 at 14:04:49.

 READING SIMULATION OPTIONS
 END OF SIMULATION OPTIONS

 READING SIMULATION TIMING

 OPENED peat_testing_0.tdis
 FILE TYPE:TDIS   UNIT 1002   STATUS:OLD                 
 FORMAT:FORMATTED              ACCESS:SEQUENTIAL          
 ACTION:READ                


 TDIS -- TEMPORAL DISCRETIZATION PACKAGE,
 VERSION 1 : 11/13/2014 - INPUT READ FROM UNIT 1002
 # File generated by Flopy version 3.3.6 on 03/03/2023 at 14:04:49.
 PROCESSING TDIS OPTIONS
    SIMULATION TIME UNIT IS DAYS
 END OF TDIS OPTIONS
 PROCESSING TDIS DIMENSIONS
   10 STRESS PERIOD(S) IN SIMULATION
 END OF TDIS DIMENSIONS
 PROCESSING TDIS PERIODDATA


 STRESS PERIOD     LENGTH       TIME STEPS     MULTIPLIER FOR DELT
 ----------------------------------------------------------------------------
        1         5.000000          1                    1.000
        2         5.000000          1                    1.000
        3         5.000000          1                    1.000
        4         5.000000          1                    1.000
        5         5.000000          1                    1.000
        6         5.000000          1                    1.000
        7         5.000000          1                    1.000
        8         5.000000          1                    1.000
        9         5.000000          1                    1.000
       10         5.000000          1                    1.000
 END OF TDIS PERIODDATA
 END OF SIMULATION TIMING

 READING SIMULATION MODELS
    GWF6 model PEAT_TESTING_0 will be created as model 1
 END OF SIMULATION MODELS

 READING SIMULATION EXCHANGES
 END OF SIMULATION EXCHANGES

 READING SOLUTIONGROUP

 Creating solution: SLN_1           

 OPENED peat_testing_0.ims
 FILE TYPE:IMS   UNIT 1010   STATUS:OLD                 
 FORMAT:FORMATTED              ACCESS:SEQUENTIAL          
 ACTION:READ                

 END OF SIMULATION SOLUTIONGROUP

ERROR REPORT:

     1. CELL (1,1,1) THICKNESS <= 0. TOP, BOT:   -3.402823060000000E+38
        -3.402823060000000E+38
     2. CELL (1,1,2) THICKNESS <= 0. TOP, BOT:   -3.402823060000000E+38
        -3.402823060000000E+38
     3. CELL (1,1,3) THICKNESS <= 0. TOP, BOT:   -3.402823060000000E+38
        -3.402823060000000E+38
     4. CELL (1,1,4) THICKNESS <= 0. TOP, BOT:   -3.402823060000000E+38
        -3.402823060000000E+38
     5. CELL (1,1,5) THICKNESS <= 0. TOP, BOT:   -3.402823060000000E+38
        -3.402823060000000E+38
     6. CELL (1,1,6) THICKNESS <= 0. TOP, BOT:   -3.402823060000000E+38
        -3.402823060000000E+38
     7. CELL (1,1,7) THICKNESS <= 0. TOP, BOT:   -3.402823060000000E+38
        -3.402823060000000E+38
     8. CELL (1,1,8) THICKNESS <= 0. TOP, BOT:   -3.402823060000000E+38
        -3.402823060000000E+38
     9. CELL (1,1,9) THICKNESS <= 0. TOP, BOT:   -3.402823060000000E+38
        -3.402823060000000E+38
    10. CELL (1,1,10) THICKNESS <= 0. TOP, BOT:   -3.402823060000000E+38
        -3.402823060000000E+38
    11. CELL (1,1,11) THICKNESS <= 0. TOP, BOT:   -3.402823060000000E+38
        -3.402823060000000E+38
    12. CELL (1,1,12) THICKNESS <= 0. TOP, BOT:   -3.402823060000000E+38
        -3.402823060000000E+38
    13. CELL (1,1,13) THICKNESS <= 0. TOP, BOT:   -3.402823060000000E+38
        -3.402823060000000E+38
    14. CELL (1,1,14) THICKNESS <= 0. TOP, BOT:   -3.402823060000000E+38
        -3.402823060000000E+38
    15. CELL (1,1,15) THICKNESS <= 0. TOP, BOT:   -3.402823060000000E+38
        -3.402823060000000E+38
    16. CELL (1,1,16) THICKNESS <= 0. TOP, BOT:   -3.402823060000000E+38
        -3.402823060000000E+38
    17. CELL (1,1,17) THICKNESS <= 0. TOP, BOT:   -3.402823060000000E+38
        -3.402823060000000E+38
    18. CELL (1,1,18) THICKNESS <= 0. TOP, BOT:   -3.402823060000000E+38
        -3.402823060000000E+38
    19. CELL (1,1,19) THICKNESS <= 0. TOP, BOT:   -3.402823060000000E+38
        -3.402823060000000E+38
    20. CELL (1,1,20) THICKNESS <= 0. TOP, BOT:   -3.402823060000000E+38
        -3.402823060000000E+38
    21. CELL (1,1,21) THICKNESS <= 0. TOP, BOT:   -3.402823060000000E+38
        -3.402823060000000E+38
    22. CELL (1,1,22) THICKNESS <= 0. TOP, BOT:   -3.402823060000000E+38
        -3.402823060000000E+38
    23. CELL (1,1,23) THICKNESS <= 0. TOP, BOT:   -3.402823060000000E+38
        -3.402823060000000E+38
    24. CELL (1,1,24) THICKNESS <= 0. TOP, BOT:   -3.402823060000000E+38
        -3.402823060000000E+38
    25. CELL (1,1,25) THICKNESS <= 0. TOP, BOT:   -3.402823060000000E+38
        -3.402823060000000E+38
    26. CELL (1,1,26) THICKNESS <= 0. TOP, BOT:   -3.402823060000000E+38
        -3.402823060000000E+38
    27. CELL (1,1,27) THICKNESS <= 0. TOP, BOT:   -3.402823060000000E+38
        -3.402823060000000E+38
    28. CELL (1,1,28) THICKNESS <= 0. TOP, BOT:   -3.402823060000000E+38
        -3.402823060000000E+38
    29. CELL (1,1,29) THICKNESS <= 0. TOP, BOT:   -3.402823060000000E+38
        -3.402823060000000E+38
    30. CELL (1,1,30) THICKNESS <= 0. TOP, BOT:   -3.402823060000000E+38
        -3.402823060000000E+38
    31. CELL (1,1,31) THICKNESS <= 0. TOP, BOT:   -3.402823060000000E+38
        -3.402823060000000E+38
    32. CELL (1,1,32) THICKNESS <= 0. TOP, BOT:   -3.402823060000000E+38
        -3.402823060000000E+38
    33. CELL (1,1,33) THICKNESS <= 0. TOP, BOT:   -3.402823060000000E+38
        -3.402823060000000E+38
    34. CELL (1,1,34) THICKNESS <= 0. TOP, BOT:   -3.402823060000000E+38
        -3.402823060000000E+38
    35. CELL (1,1,35) THICKNESS <= 0. TOP, BOT:   -3.402823060000000E+38
        -3.402823060000000E+38
    36. CELL (1,1,36) THICKNESS <= 0. TOP, BOT:   -3.402823060000000E+38
        -3.402823060000000E+38
    37. CELL (1,1,37) THICKNESS <= 0. TOP, BOT:   -3.402823060000000E+38
        -3.402823060000000E+38
    38. CELL (1,1,38) THICKNESS <= 0. TOP, BOT:   -3.402823060000000E+38
        -3.402823060000000E+38
    39. CELL (1,1,39) THICKNESS <= 0. TOP, BOT:   -3.402823060000000E+38
        -3.402823060000000E+38
    40. CELL (1,1,40) THICKNESS <= 0. TOP, BOT:   -3.402823060000000E+38
        -3.402823060000000E+38
    41. CELL (1,1,41) THICKNESS <= 0. TOP, BOT:   -3.402823060000000E+38
        -3.402823060000000E+38
    42. CELL (1,1,42) THICKNESS <= 0. TOP, BOT:   -3.402823060000000E+38
        -3.402823060000000E+38
    43. CELL (1,1,43) THICKNESS <= 0. TOP, BOT:   -3.402823060000000E+38
        -3.402823060000000E+38
    44. CELL (1,1,44) THICKNESS <= 0. TOP, BOT:   -3.402823060000000E+38
        -3.402823060000000E+38
    45. CELL (1,1,45) THICKNESS <= 0. TOP, BOT:   -3.402823060000000E+38
        -3.402823060000000E+38
    46. CELL (1,1,46) THICKNESS <= 0. TOP, BOT:   -3.402823060000000E+38
        -3.402823060000000E+38
    47. CELL (1,1,47) THICKNESS <= 0. TOP, BOT:   -3.402823060000000E+38
        -3.402823060000000E+38
    48. CELL (1,1,48) THICKNESS <= 0. TOP, BOT:   -3.402823060000000E+38
        -3.402823060000000E+38
    49. CELL (1,1,49) THICKNESS <= 0. TOP, BOT:   -3.402823060000000E+38
        -3.402823060000000E+38
    50. CELL (1,1,50) THICKNESS <= 0. TOP, BOT:   -3.402823060000000E+38
        -3.402823060000000E+38
    51. CELL (1,1,51) THICKNESS <= 0. TOP, BOT:   -3.402823060000000E+38
        -3.402823060000000E+38
    52. CELL (1,1,52) THICKNESS <= 0. TOP, BOT:   -3.402823060000000E+38
        -3.402823060000000E+38
    53. CELL (1,1,53) THICKNESS <= 0. TOP, BOT:   -3.402823060000000E+38
        -3.402823060000000E+38
    54. CELL (1,1,54) THICKNESS <= 0. TOP, BOT:   -3.402823060000000E+38
        -3.402823060000000E+38
    55. CELL (1,1,55) THICKNESS <= 0. TOP, BOT:   -3.402823060000000E+38
        -3.402823060000000E+38
    56. CELL (1,1,56) THICKNESS <= 0. TOP, BOT:   -3.402823060000000E+38
        -3.402823060000000E+38
    57. CELL (1,1,57) THICKNESS <= 0. TOP, BOT:   -3.402823060000000E+38
        -3.402823060000000E+38
    58. CELL (1,1,58) THICKNESS <= 0. TOP, BOT:   -3.402823060000000E+38
        -3.402823060000000E+38
    59. CELL (1,1,59) THICKNESS <= 0. TOP, BOT:   -3.402823060000000E+38
        -3.402823060000000E+38
    60. CELL (1,1,60) THICKNESS <= 0. TOP, BOT:   -3.402823060000000E+38
        -3.402823060000000E+38
    61. CELL (1,1,61) THICKNESS <= 0. TOP, BOT:   -3.402823060000000E+38
        -3.402823060000000E+38
    62. CELL (1,1,62) THICKNESS <= 0. TOP, BOT:   -3.402823060000000E+38
        -3.402823060000000E+38
    63. CELL (1,1,63) THICKNESS <= 0. TOP, BOT:   -3.402823060000000E+38
        -3.402823060000000E+38
    64. CELL (1,1,64) THICKNESS <= 0. TOP, BOT:   -3.402823060000000E+38
        -3.402823060000000E+38
    65. CELL (1,1,65) THICKNESS <= 0. TOP, BOT:   -3.402823060000000E+38
        -3.402823060000000E+38
    66. CELL (1,1,66) THICKNESS <= 0. TOP, BOT:   -3.402823060000000E+38
        -3.402823060000000E+38
    67. CELL (1,1,70) THICKNESS <= 0. TOP, BOT:   -3.402823060000000E+38
        -3.402823060000000E+38
    68. CELL (1,1,71) THICKNESS <= 0. TOP, BOT:   -3.402823060000000E+38
        -3.402823060000000E+38
    69. CELL (1,1,72) THICKNESS <= 0. TOP, BOT:   -3.402823060000000E+38
        -3.402823060000000E+38
    70. CELL (1,1,73) THICKNESS <= 0. TOP, BOT:   -3.402823060000000E+38
        -3.402823060000000E+38
    71. CELL (1,1,74) THICKNESS <= 0. TOP, BOT:   -3.402823060000000E+38
        -3.402823060000000E+38
    72. CELL (1,1,75) THICKNESS <= 0. TOP, BOT:   -3.402823060000000E+38
        -3.402823060000000E+38
    73. CELL (1,1,76) THICKNESS <= 0. TOP, BOT:   -3.402823060000000E+38
        -3.402823060000000E+38
    74. CELL (1,1,77) THICKNESS <= 0. TOP, BOT:   -3.402823060000000E+38
        -3.402823060000000E+38
    75. CELL (1,1,78) THICKNESS <= 0. TOP, BOT:   -3.402823060000000E+38
        -3.402823060000000E+38
    76. CELL (1,1,79) THICKNESS <= 0. TOP, BOT:   -3.402823060000000E+38
        -3.402823060000000E+38
    77. CELL (1,1,80) THICKNESS <= 0. TOP, BOT:   -3.402823060000000E+38
        -3.402823060000000E+38
    78. CELL (1,1,81) THICKNESS <= 0. TOP, BOT:   -3.402823060000000E+38
        -3.402823060000000E+38
    79. CELL (1,1,82) THICKNESS <= 0. TOP, BOT:   -3.402823060000000E+38
        -3.402823060000000E+38
    80. CELL (1,1,83) THICKNESS <= 0. TOP, BOT:   -3.402823060000000E+38
        -3.402823060000000E+38
    81. CELL (1,1,84) THICKNESS <= 0. TOP, BOT:   -3.402823060000000E+38
        -3.402823060000000E+38
    82. CELL (1,1,85) THICKNESS <= 0. TOP, BOT:   -3.402823060000000E+38
        -3.402823060000000E+38
    83. CELL (1,1,86) THICKNESS <= 0. TOP, BOT:   -3.402823060000000E+38
        -3.402823060000000E+38
    84. CELL (1,1,87) THICKNESS <= 0. TOP, BOT:   -3.402823060000000E+38
        -3.402823060000000E+38
    85. CELL (1,1,88) THICKNESS <= 0. TOP, BOT:   -3.402823060000000E+38
        -3.402823060000000E+38
    86. CELL (1,1,89) THICKNESS <= 0. TOP, BOT:   -3.402823060000000E+38
        -3.402823060000000E+38
    87. CELL (1,1,90) THICKNESS <= 0. TOP, BOT:   -3.402823060000000E+38
        -3.402823060000000E+38
    88. CELL (1,1,91) THICKNESS <= 0. TOP, BOT:   -3.402823060000000E+38
        -3.402823060000000E+38
    89. CELL (1,1,92) THICKNESS <= 0. TOP, BOT:   -3.402823060000000E+38
        -3.402823060000000E+38
    90. CELL (1,1,93) THICKNESS <= 0. TOP, BOT:   -3.402823060000000E+38
        -3.402823060000000E+38
    91. CELL (1,1,94) THICKNESS <= 0. TOP, BOT:   -3.402823060000000E+38
        -3.402823060000000E+38
    92. CELL (1,1,95) THICKNESS <= 0. TOP, BOT:   -3.402823060000000E+38
        -3.402823060000000E+38
    93. CELL (1,1,96) THICKNESS <= 0. TOP, BOT:   -3.402823060000000E+38
        -3.402823060000000E+38
    94. CELL (1,1,97) THICKNESS <= 0. TOP, BOT:   -3.402823060000000E+38
        -3.402823060000000E+38
    95. CELL (1,1,98) THICKNESS <= 0. TOP, BOT:   -3.402823060000000E+38
        -3.402823060000000E+38
    96. CELL (1,1,99) THICKNESS <= 0. TOP, BOT:   -3.402823060000000E+38
        -3.402823060000000E+38
    97. CELL (1,1,100) THICKNESS <= 0. TOP, BOT:   -3.402823060000000E+38
        -3.402823060000000E+38
    98. CELL (1,1,101) THICKNESS <= 0. TOP, BOT:   -3.402823060000000E+38
        -3.402823060000000E+38
    99. CELL (1,1,102) THICKNESS <= 0. TOP, BOT:   -3.402823060000000E+38
        -3.402823060000000E+38
   100. CELL (1,1,103) THICKNESS <= 0. TOP, BOT:   -3.402823060000000E+38
        -3.402823060000000E+38
   101. CELL (1,1,104) THICKNESS <= 0. TOP, BOT:   -3.402823060000000E+38
        -3.402823060000000E+38
   102. CELL (1,1,105) THICKNESS <= 0. TOP, BOT:   -3.402823060000000E+38
        -3.402823060000000E+38
   103. CELL (1,2,1) THICKNESS <= 0. TOP, BOT:   -3.402823060000000E+38
        -3.402823060000000E+38
   104. CELL (1,2,2) THICKNESS <= 0. TOP, BOT:   -3.402823060000000E+38
        -3.402823060000000E+38
   105. CELL (1,2,3) THICKNESS <= 0. TOP, BOT:   -3.402823060000000E+38
        -3.402823060000000E+38
   106. CELL (1,2,4) THICKNESS <= 0. TOP, BOT:   -3.402823060000000E+38
        -3.402823060000000E+38
   107. CELL (1,2,5) THICKNESS <= 0. TOP, BOT:   -3.402823060000000E+38
        -3.402823060000000E+38
   108. CELL (1,2,6) THICKNESS <= 0. TOP, BOT:   -3.402823060000000E+38
        -3.402823060000000E+38
   109. CELL (1,2,7) THICKNESS <= 0. TOP, BOT:   -3.402823060000000E+38
        -3.402823060000000E+38
   110. CELL (1,2,8) THICKNESS <= 0. TOP, BOT:   -3.402823060000000E+38
        -3.402823060000000E+38
   111. CELL (1,2,9) THICKNESS <= 0. TOP, BOT:   -3.402823060000000E+38
        -3.402823060000000E+38
   112. CELL (1,2,10) THICKNESS <= 0. TOP, BOT:   -3.402823060000000E+38
        -3.402823060000000E+38
   113. CELL (1,2,11) THICKNESS <= 0. TOP, BOT:   -3.402823060000000E+38
        -3.402823060000000E+38
   114. CELL (1,2,12) THICKNESS <= 0. TOP, BOT:   -3.402823060000000E+38
        -3.402823060000000E+38
   115. CELL (1,2,13) THICKNESS <= 0. TOP, BOT:   -3.402823060000000E+38
        -3.402823060000000E+38
   116. CELL (1,2,14) THICKNESS <= 0. TOP, BOT:   -3.402823060000000E+38
        -3.402823060000000E+38
   117. CELL (1,2,15) THICKNESS <= 0. TOP, BOT:   -3.402823060000000E+38
        -3.402823060000000E+38
   118. CELL (1,2,16) THICKNESS <= 0. TOP, BOT:   -3.402823060000000E+38
        -3.402823060000000E+38
   119. CELL (1,2,17) THICKNESS <= 0. TOP, BOT:   -3.402823060000000E+38
        -3.402823060000000E+38
   120. CELL (1,2,18) THICKNESS <= 0. TOP, BOT:   -3.402823060000000E+38
        -3.402823060000000E+38
   121. CELL (1,2,19) THICKNESS <= 0. TOP, BOT:   -3.402823060000000E+38
        -3.402823060000000E+38
   122. CELL (1,2,20) THICKNESS <= 0. TOP, BOT:   -3.402823060000000E+38
        -3.402823060000000E+38
   123. CELL (1,2,21) THICKNESS <= 0. TOP, BOT:   -3.402823060000000E+38
        -3.402823060000000E+38
   124. CELL (1,2,22) THICKNESS <= 0. TOP, BOT:   -3.402823060000000E+38
        -3.402823060000000E+38
   125. CELL (1,2,23) THICKNESS <= 0. TOP, BOT:   -3.402823060000000E+38
        -3.402823060000000E+38
   126. CELL (1,2,24) THICKNESS <= 0. TOP, BOT:   -3.402823060000000E+38
        -3.402823060000000E+38
   127. CELL (1,2,25) THICKNESS <= 0. TOP, BOT:   -3.402823060000000E+38
        -3.402823060000000E+38
   128. CELL (1,2,26) THICKNESS <= 0. TOP, BOT:   -3.402823060000000E+38
        -3.402823060000000E+38
   129. CELL (1,2,27) THICKNESS <= 0. TOP, BOT:   -3.402823060000000E+38
        -3.402823060000000E+38
   130. CELL (1,2,28) THICKNESS <= 0. TOP, BOT:   -3.402823060000000E+38
        -3.402823060000000E+38
   131. CELL (1,2,29) THICKNESS <= 0. TOP, BOT:   -3.402823060000000E+38
        -3.402823060000000E+38
   132. CELL (1,2,30) THICKNESS <= 0. TOP, BOT:   -3.402823060000000E+38
        -3.402823060000000E+38
   133. CELL (1,2,31) THICKNESS <= 0. TOP, BOT:   -3.402823060000000E+38
        -3.402823060000000E+38
   134. CELL (1,2,32) THICKNESS <= 0. TOP, BOT:   -3.402823060000000E+38
        -3.402823060000000E+38
   135. CELL (1,2,33) THICKNESS <= 0. TOP, BOT:   -3.402823060000000E+38
        -3.402823060000000E+38
   136. CELL (1,2,34) THICKNESS <= 0. TOP, BOT:   -3.402823060000000E+38
        -3.402823060000000E+38
   137. CELL (1,2,35) THICKNESS <= 0. TOP, BOT:   -3.402823060000000E+38
        -3.402823060000000E+38
   138. CELL (1,2,36) THICKNESS <= 0. TOP, BOT:   -3.402823060000000E+38
        -3.402823060000000E+38
   139. CELL (1,2,37) THICKNESS <= 0. TOP, BOT:   -3.402823060000000E+38
        -3.402823060000000E+38
   140. CELL (1,2,38) THICKNESS <= 0. TOP, BOT:   -3.402823060000000E+38
        -3.402823060000000E+38
   141. CELL (1,2,39) THICKNESS <= 0. TOP, BOT:   -3.402823060000000E+38
        -3.402823060000000E+38
   142. CELL (1,2,40) THICKNESS <= 0. TOP, BOT:   -3.402823060000000E+38
        -3.402823060000000E+38
   143. CELL (1,2,41) THICKNESS <= 0. TOP, BOT:   -3.402823060000000E+38
        -3.402823060000000E+38
   144. CELL (1,2,42) THICKNESS <= 0. TOP, BOT:   -3.402823060000000E+38
        -3.402823060000000E+38
   145. CELL (1,2,43) THICKNESS <= 0. TOP, BOT:   -3.402823060000000E+38
        -3.402823060000000E+38
   146. CELL (1,2,44) THICKNESS <= 0. TOP, BOT:   -3.402823060000000E+38
        -3.402823060000000E+38
   147. CELL (1,2,45) THICKNESS <= 0. TOP, BOT:   -3.402823060000000E+38
        -3.402823060000000E+38
   148. CELL (1,2,46) THICKNESS <= 0. TOP, BOT:   -3.402823060000000E+38
        -3.402823060000000E+38
   149. CELL (1,2,47) THICKNESS <= 0. TOP, BOT:   -3.402823060000000E+38
        -3.402823060000000E+38
   150. CELL (1,2,48) THICKNESS <= 0. TOP, BOT:   -3.402823060000000E+38
        -3.402823060000000E+38
   151. CELL (1,2,49) THICKNESS <= 0. TOP, BOT:   -3.402823060000000E+38
        -3.402823060000000E+38
   152. CELL (1,2,50) THICKNESS <= 0. TOP, BOT:   -3.402823060000000E+38
        -3.402823060000000E+38
   153. CELL (1,2,51) THICKNESS <= 0. TOP, BOT:   -3.402823060000000E+38
        -3.402823060000000E+38
   154. CELL (1,2,52) THICKNESS <= 0. TOP, BOT:   -3.402823060000000E+38
        -3.402823060000000E+38
   155. CELL (1,2,53) THICKNESS <= 0. TOP, BOT:   -3.402823060000000E+38
        -3.402823060000000E+38
   156. CELL (1,2,54) THICKNESS <= 0. TOP, BOT:   -3.402823060000000E+38
        -3.402823060000000E+38
   157. CELL (1,2,55) THICKNESS <= 0. TOP, BOT:   -3.402823060000000E+38
        -3.402823060000000E+38
   158. CELL (1,2,56) THICKNESS <= 0. TOP, BOT:   -3.402823060000000E+38
        -3.402823060000000E+38
   159. CELL (1,2,57) THICKNESS <= 0. TOP, BOT:   -3.402823060000000E+38
        -3.402823060000000E+38
   160. CELL (1,2,58) THICKNESS <= 0. TOP, BOT:   -3.402823060000000E+38
        -3.402823060000000E+38
   161. CELL (1,2,59) THICKNESS <= 0. TOP, BOT:   -3.402823060000000E+38
        -3.402823060000000E+38
   162. CELL (1,2,60) THICKNESS <= 0. TOP, BOT:   -3.402823060000000E+38
        -3.402823060000000E+38
   163. CELL (1,2,61) THICKNESS <= 0. TOP, BOT:   -3.402823060000000E+38
        -3.402823060000000E+38
   164. CELL (1,2,62) THICKNESS <= 0. TOP, BOT:   -3.402823060000000E+38
        -3.402823060000000E+38
   165. CELL (1,2,63) THICKNESS <= 0. TOP, BOT:   -3.402823060000000E+38
        -3.402823060000000E+38
   166. CELL (1,2,64) THICKNESS <= 0. TOP, BOT:   -3.402823060000000E+38
        -3.402823060000000E+38
   167. CELL (1,2,65) THICKNESS <= 0. TOP, BOT:   -3.402823060000000E+38
        -3.402823060000000E+38
   168. CELL (1,2,66) THICKNESS <= 0. TOP, BOT:   -3.402823060000000E+38
        -3.402823060000000E+38
   169. CELL (1,2,67) THICKNESS <= 0. TOP, BOT:   -3.402823060000000E+38
        -3.402823060000000E+38
   170. CELL (1,2,68) THICKNESS <= 0. TOP, BOT:   -3.402823060000000E+38
        -3.402823060000000E+38
   171. CELL (1,2,69) THICKNESS <= 0. TOP, BOT:   -3.402823060000000E+38
        -3.402823060000000E+38
   172. CELL (1,2,70) THICKNESS <= 0. TOP, BOT:   -3.402823060000000E+38
        -3.402823060000000E+38
   173. CELL (1,2,71) THICKNESS <= 0. TOP, BOT:   -3.402823060000000E+38
        -3.402823060000000E+38
   174. CELL (1,2,72) THICKNESS <= 0. TOP, BOT:   -3.402823060000000E+38
        -3.402823060000000E+38
   175. CELL (1,2,73) THICKNESS <= 0. TOP, BOT:   -3.402823060000000E+38
        -3.402823060000000E+38
   176. CELL (1,2,74) THICKNESS <= 0. TOP, BOT:   -3.402823060000000E+38
        -3.402823060000000E+38
   177. CELL (1,2,75) THICKNESS <= 0. TOP, BOT:   -3.402823060000000E+38
        -3.402823060000000E+38
   178. CELL (1,2,85) THICKNESS <= 0. TOP, BOT:   -3.402823060000000E+38
        -3.402823060000000E+38
   179. CELL (1,2,86) THICKNESS <= 0. TOP, BOT:   -3.402823060000000E+38
        -3.402823060000000E+38
   180. CELL (1,2,87) THICKNESS <= 0. TOP, BOT:   -3.402823060000000E+38
        -3.402823060000000E+38
   181. CELL (1,2,88) THICKNESS <= 0. TOP, BOT:   -3.402823060000000E+38
        -3.402823060000000E+38
   182. CELL (1,2,89) THICKNESS <= 0. TOP, BOT:   -3.402823060000000E+38
        -3.402823060000000E+38
   183. CELL (1,2,90) THICKNESS <= 0. TOP, BOT:   -3.402823060000000E+38
        -3.402823060000000E+38
   184. CELL (1,2,91) THICKNESS <= 0. TOP, BOT:   -3.402823060000000E+38
        -3.402823060000000E+38
   185. CELL (1,2,92) THICKNESS <= 0. TOP, BOT:   -3.402823060000000E+38
        -3.402823060000000E+38
   186. CELL (1,2,93) THICKNESS <= 0. TOP, BOT:   -3.402823060000000E+38
        -3.402823060000000E+38
   187. CELL (1,2,94) THICKNESS <= 0. TOP, BOT:   -3.402823060000000E+38
        -3.402823060000000E+38
   188. CELL (1,2,95) THICKNESS <= 0. TOP, BOT:   -3.402823060000000E+38
        -3.402823060000000E+38
   189. CELL (1,2,96) THICKNESS <= 0. TOP, BOT:   -3.402823060000000E+38
        -3.402823060000000E+38
   190. CELL (1,2,97) THICKNESS <= 0. TOP, BOT:   -3.402823060000000E+38
        -3.402823060000000E+38
   191. CELL (1,2,98) THICKNESS <= 0. TOP, BOT:   -3.402823060000000E+38
        -3.402823060000000E+38
   192. CELL (1,2,99) THICKNESS <= 0. TOP, BOT:   -3.402823060000000E+38
        -3.402823060000000E+38
   193. CELL (1,2,100) THICKNESS <= 0. TOP, BOT:   -3.402823060000000E+38
        -3.402823060000000E+38
   194. CELL (1,2,101) THICKNESS <= 0. TOP, BOT:   -3.402823060000000E+38
        -3.402823060000000E+38
   195. CELL (1,2,102) THICKNESS <= 0. TOP, BOT:   -3.402823060000000E+38
        -3.402823060000000E+38
   196. CELL (1,2,103) THICKNESS <= 0. TOP, BOT:   -3.402823060000000E+38
        -3.402823060000000E+38
   197. CELL (1,2,104) THICKNESS <= 0. TOP, BOT:   -3.402823060000000E+38
        -3.402823060000000E+38
   198. CELL (1,2,105) THICKNESS <= 0. TOP, BOT:   -3.402823060000000E+38
        -3.402823060000000E+38
   199. CELL (1,3,1) THICKNESS <= 0. TOP, BOT:   -3.402823060000000E+38
        -3.402823060000000E+38
   200. CELL (1,3,2) THICKNESS <= 0. TOP, BOT:   -3.402823060000000E+38
        -3.402823060000000E+38
   201. CELL (1,3,3) THICKNESS <= 0. TOP, BOT:   -3.402823060000000E+38
        -3.402823060000000E+38
   202. CELL (1,3,4) THICKNESS <= 0. TOP, BOT:   -3.402823060000000E+38
        -3.402823060000000E+38
   203. CELL (1,3,5) THICKNESS <= 0. TOP, BOT:   -3.402823060000000E+38
        -3.402823060000000E+38
   204. CELL (1,3,6) THICKNESS <= 0. TOP, BOT:   -3.402823060000000E+38
        -3.402823060000000E+38
   205. CELL (1,3,7) THICKNESS <= 0. TOP, BOT:   -3.402823060000000E+38
        -3.402823060000000E+38
   206. CELL (1,3,8) THICKNESS <= 0. TOP, BOT:   -3.402823060000000E+38
        -3.402823060000000E+38
   207. CELL (1,3,9) THICKNESS <= 0. TOP, BOT:   -3.402823060000000E+38
        -3.402823060000000E+38
   208. CELL (1,3,10) THICKNESS <= 0. TOP, BOT:   -3.402823060000000E+38
        -3.402823060000000E+38
   209. CELL (1,3,11) THICKNESS <= 0. TOP, BOT:   -3.402823060000000E+38
        -3.402823060000000E+38
   210. CELL (1,3,12) THICKNESS <= 0. TOP, BOT:   -3.402823060000000E+38
        -3.402823060000000E+38
   211. CELL (1,3,13) THICKNESS <= 0. TOP, BOT:   -3.402823060000000E+38
        -3.402823060000000E+38
   212. CELL (1,3,14) THICKNESS <= 0. TOP, BOT:   -3.402823060000000E+38
        -3.402823060000000E+38
   213. CELL (1,3,15) THICKNESS <= 0. TOP, BOT:   -3.402823060000000E+38
        -3.402823060000000E+38
   214. CELL (1,3,16) THICKNESS <= 0. TOP, BOT:   -3.402823060000000E+38
        -3.402823060000000E+38
   215. CELL (1,3,17) THICKNESS <= 0. TOP, BOT:   -3.402823060000000E+38
        -3.402823060000000E+38
   216. CELL (1,3,18) THICKNESS <= 0. TOP, BOT:   -3.402823060000000E+38
        -3.402823060000000E+38
   217. CELL (1,3,19) THICKNESS <= 0. TOP, BOT:   -3.402823060000000E+38
        -3.402823060000000E+38
   218. CELL (1,3,20) THICKNESS <= 0. TOP, BOT:   -3.402823060000000E+38
        -3.402823060000000E+38
   219. CELL (1,3,21) THICKNESS <= 0. TOP, BOT:   -3.402823060000000E+38
        -3.402823060000000E+38
   220. CELL (1,3,22) THICKNESS <= 0. TOP, BOT:   -3.402823060000000E+38
        -3.402823060000000E+38
   221. CELL (1,3,23) THICKNESS <= 0. TOP, BOT:   -3.402823060000000E+38
        -3.402823060000000E+38
   222. CELL (1,3,24) THICKNESS <= 0. TOP, BOT:   -3.402823060000000E+38
        -3.402823060000000E+38
   223. CELL (1,3,25) THICKNESS <= 0. TOP, BOT:   -3.402823060000000E+38
        -3.402823060000000E+38
   224. CELL (1,3,26) THICKNESS <= 0. TOP, BOT:   -3.402823060000000E+38
        -3.402823060000000E+38
   225. CELL (1,3,27) THICKNESS <= 0. TOP, BOT:   -3.402823060000000E+38
        -3.402823060000000E+38
   226. CELL (1,3,28) THICKNESS <= 0. TOP, BOT:   -3.402823060000000E+38
        -3.402823060000000E+38
   227. CELL (1,3,29) THICKNESS <= 0. TOP, BOT:   -3.402823060000000E+38
        -3.402823060000000E+38
   228. CELL (1,3,30) THICKNESS <= 0. TOP, BOT:   -3.402823060000000E+38
        -3.402823060000000E+38
   229. CELL (1,3,31) THICKNESS <= 0. TOP, BOT:   -3.402823060000000E+38
        -3.402823060000000E+38
   230. CELL (1,3,32) THICKNESS <= 0. TOP, BOT:   -3.402823060000000E+38
        -3.402823060000000E+38
   231. CELL (1,3,33) THICKNESS <= 0. TOP, BOT:   -3.402823060000000E+38
        -3.402823060000000E+38
   232. CELL (1,3,34) THICKNESS <= 0. TOP, BOT:   -3.402823060000000E+38
        -3.402823060000000E+38
   233. CELL (1,3,35) THICKNESS <= 0. TOP, BOT:   -3.402823060000000E+38
        -3.402823060000000E+38
   234. CELL (1,3,36) THICKNESS <= 0. TOP, BOT:   -3.402823060000000E+38
        -3.402823060000000E+38
   235. CELL (1,3,37) THICKNESS <= 0. TOP, BOT:   -3.402823060000000E+38
        -3.402823060000000E+38
   236. CELL (1,3,38) THICKNESS <= 0. TOP, BOT:   -3.402823060000000E+38
        -3.402823060000000E+38
   237. CELL (1,3,39) THICKNESS <= 0. TOP, BOT:   -3.402823060000000E+38
        -3.402823060000000E+38
   238. CELL (1,3,40) THICKNESS <= 0. TOP, BOT:   -3.402823060000000E+38
        -3.402823060000000E+38
   239. CELL (1,3,41) THICKNESS <= 0. TOP, BOT:   -3.402823060000000E+38
        -3.402823060000000E+38
   240. CELL (1,3,42) THICKNESS <= 0. TOP, BOT:   -3.402823060000000E+38
        -3.402823060000000E+38
   241. CELL (1,3,43) THICKNESS <= 0. TOP, BOT:   -3.402823060000000E+38
        -3.402823060000000E+38
   242. CELL (1,3,44) THICKNESS <= 0. TOP, BOT:   -3.402823060000000E+38
        -3.402823060000000E+38
   243. CELL (1,3,45) THICKNESS <= 0. TOP, BOT:   -3.402823060000000E+38
        -3.402823060000000E+38
   244. CELL (1,3,46) THICKNESS <= 0. TOP, BOT:   -3.402823060000000E+38
        -3.402823060000000E+38
   245. CELL (1,3,47) THICKNESS <= 0. TOP, BOT:   -3.402823060000000E+38
        -3.402823060000000E+38
   246. CELL (1,3,48) THICKNESS <= 0. TOP, BOT:   -3.402823060000000E+38
        -3.402823060000000E+38
   247. CELL (1,3,49) THICKNESS <= 0. TOP, BOT:   -3.402823060000000E+38
        -3.402823060000000E+38
   248. CELL (1,3,50) THICKNESS <= 0. TOP, BOT:   -3.402823060000000E+38
        -3.402823060000000E+38
   249. CELL (1,3,51) THICKNESS <= 0. TOP, BOT:   -3.402823060000000E+38
        -3.402823060000000E+38
   250. CELL (1,3,52) THICKNESS <= 0. TOP, BOT:   -3.402823060000000E+38
        -3.402823060000000E+38
   251. CELL (1,3,53) THICKNESS <= 0. TOP, BOT:   -3.402823060000000E+38
        -3.402823060000000E+38
   252. CELL (1,3,54) THICKNESS <= 0. TOP, BOT:   -3.402823060000000E+38
        -3.402823060000000E+38
   253. CELL (1,3,55) THICKNESS <= 0. TOP, BOT:   -3.402823060000000E+38
        -3.402823060000000E+38
   254. CELL (1,3,56) THICKNESS <= 0. TOP, BOT:   -3.402823060000000E+38
        -3.402823060000000E+38
   255. CELL (1,3,57) THICKNESS <= 0. TOP, BOT:   -3.402823060000000E+38
        -3.402823060000000E+38
   256. CELL (1,3,58) THICKNESS <= 0. TOP, BOT:   -3.402823060000000E+38
        -3.402823060000000E+38
   257. CELL (1,3,59) THICKNESS <= 0. TOP, BOT:   -3.402823060000000E+38
        -3.402823060000000E+38
   258. CELL (1,3,60) THICKNESS <= 0. TOP, BOT:   -3.402823060000000E+38
        -3.402823060000000E+38
   259. CELL (1,3,61) THICKNESS <= 0. TOP, BOT:   -3.402823060000000E+38
        -3.402823060000000E+38
   260. CELL (1,3,62) THICKNESS <= 0. TOP, BOT:   -3.402823060000000E+38
        -3.402823060000000E+38
   261. CELL (1,3,63) THICKNESS <= 0. TOP, BOT:   -3.402823060000000E+38
        -3.402823060000000E+38
   262. CELL (1,3,64) THICKNESS <= 0. TOP, BOT:   -3.402823060000000E+38
        -3.402823060000000E+38
   263. CELL (1,3,65) THICKNESS <= 0. TOP, BOT:   -3.402823060000000E+38
        -3.402823060000000E+38
   264. CELL (1,3,66) THICKNESS <= 0. TOP, BOT:   -3.402823060000000E+38
        -3.402823060000000E+38
   265. CELL (1,3,67) THICKNESS <= 0. TOP, BOT:   -3.402823060000000E+38
        -3.402823060000000E+38
   266. CELL (1,3,68) THICKNESS <= 0. TOP, BOT:   -3.402823060000000E+38
        -3.402823060000000E+38
   267. CELL (1,3,69) THICKNESS <= 0. TOP, BOT:   -3.402823060000000E+38
        -3.402823060000000E+38
   268. CELL (1,3,70) THICKNESS <= 0. TOP, BOT:   -3.402823060000000E+38
        -3.402823060000000E+38
   269. CELL (1,3,71) THICKNESS <= 0. TOP, BOT:   -3.402823060000000E+38
        -3.402823060000000E+38
   270. CELL (1,3,72) THICKNESS <= 0. TOP, BOT:   -3.402823060000000E+38
        -3.402823060000000E+38
   271. CELL (1,3,73) THICKNESS <= 0. TOP, BOT:   -3.402823060000000E+38
        -3.402823060000000E+38
   272. CELL (1,3,74) THICKNESS <= 0. TOP, BOT:   -3.402823060000000E+38
        -3.402823060000000E+38
   273. CELL (1,3,75) THICKNESS <= 0. TOP, BOT:   -3.402823060000000E+38
        -3.402823060000000E+38
   274. CELL (1,3,76) THICKNESS <= 0. TOP, BOT:   -3.402823060000000E+38
        -3.402823060000000E+38
   275. CELL (1,3,77) THICKNESS <= 0. TOP, BOT:   -3.402823060000000E+38
        -3.402823060000000E+38
   276. CELL (1,3,78) THICKNESS <= 0. TOP, BOT:   -3.402823060000000E+38
        -3.402823060000000E+38
   277. CELL (1,3,79) THICKNESS <= 0. TOP, BOT:   -3.402823060000000E+38
        -3.402823060000000E+38
   278. CELL (1,3,80) THICKNESS <= 0. TOP, BOT:   -3.402823060000000E+38
        -3.402823060000000E+38
   279. CELL (1,3,81) THICKNESS <= 0. TOP, BOT:   -3.402823060000000E+38
        -3.402823060000000E+38
   280. CELL (1,3,82) THICKNESS <= 0. TOP, BOT:   -3.402823060000000E+38
        -3.402823060000000E+38
   281. CELL (1,3,83) THICKNESS <= 0. TOP, BOT:   -3.402823060000000E+38
        -3.402823060000000E+38
   282. CELL (1,3,84) THICKNESS <= 0. TOP, BOT:   -3.402823060000000E+38
        -3.402823060000000E+38
   283. CELL (1,3,85) THICKNESS <= 0. TOP, BOT:   -3.402823060000000E+38
        -3.402823060000000E+38
   284. CELL (1,3,86) THICKNESS <= 0. TOP, BOT:   -3.402823060000000E+38
        -3.402823060000000E+38
   285. CELL (1,3,99) THICKNESS <= 0. TOP, BOT:   -3.402823060000000E+38
        -3.402823060000000E+38
   286. CELL (1,3,100) THICKNESS <= 0. TOP, BOT:   -3.402823060000000E+38
        -3.402823060000000E+38
   287. CELL (1,3,101) THICKNESS <= 0. TOP, BOT:   -3.402823060000000E+38
        -3.402823060000000E+38
   288. CELL (1,3,102) THICKNESS <= 0. TOP, BOT:   -3.402823060000000E+38
        -3.402823060000000E+38
   289. CELL (1,3,103) THICKNESS <= 0. TOP, BOT:   -3.402823060000000E+38
        -3.402823060000000E+38
   290. CELL (1,3,104) THICKNESS <= 0. TOP, BOT:   -3.402823060000000E+38
        -3.402823060000000E+38
   291. CELL (1,3,105) THICKNESS <= 0. TOP, BOT:   -3.402823060000000E+38
        -3.402823060000000E+38
   292. CELL (1,4,1) THICKNESS <= 0. TOP, BOT:   -3.402823060000000E+38
        -3.402823060000000E+38
   293. CELL (1,4,2) THICKNESS <= 0. TOP, BOT:   -3.402823060000000E+38
        -3.402823060000000E+38
   294. CELL (1,4,3) THICKNESS <= 0. TOP, BOT:   -3.402823060000000E+38
        -3.402823060000000E+38
   295. CELL (1,4,4) THICKNESS <= 0. TOP, BOT:   -3.402823060000000E+38
        -3.402823060000000E+38
   296. CELL (1,4,5) THICKNESS <= 0. TOP, BOT:   -3.402823060000000E+38
        -3.402823060000000E+38
   297. CELL (1,4,6) THICKNESS <= 0. TOP, BOT:   -3.402823060000000E+38
        -3.402823060000000E+38
   298. CELL (1,4,7) THICKNESS <= 0. TOP, BOT:   -3.402823060000000E+38
        -3.402823060000000E+38
   299. CELL (1,4,8) THICKNESS <= 0. TOP, BOT:   -3.402823060000000E+38
        -3.402823060000000E+38
   300. CELL (1,4,9) THICKNESS <= 0. TOP, BOT:   -3.402823060000000E+38
        -3.402823060000000E+38
   301. CELL (1,4,10) THICKNESS <= 0. TOP, BOT:   -3.402823060000000E+38
        -3.402823060000000E+38
   302. CELL (1,4,11) THICKNESS <= 0. TOP, BOT:   -3.402823060000000E+38
        -3.402823060000000E+38
   303. CELL (1,4,12) THICKNESS <= 0. TOP, BOT:   -3.402823060000000E+38
        -3.402823060000000E+38
   304. CELL (1,4,13) THICKNESS <= 0. TOP, BOT:   -3.402823060000000E+38
        -3.402823060000000E+38
   305. CELL (1,4,14) THICKNESS <= 0. TOP, BOT:   -3.402823060000000E+38
        -3.402823060000000E+38
   306. CELL (1,4,15) THICKNESS <= 0. TOP, BOT:   -3.402823060000000E+38
        -3.402823060000000E+38
   307. CELL (1,4,16) THICKNESS <= 0. TOP, BOT:   -3.402823060000000E+38
        -3.402823060000000E+38
   308. CELL (1,4,17) THICKNESS <= 0. TOP, BOT:   -3.402823060000000E+38
        -3.402823060000000E+38
   309. CELL (1,4,18) THICKNESS <= 0. TOP, BOT:   -3.402823060000000E+38
        -3.402823060000000E+38
   310. CELL (1,4,19) THICKNESS <= 0. TOP, BOT:   -3.402823060000000E+38
        -3.402823060000000E+38
   311. CELL (1,4,20) THICKNESS <= 0. TOP, BOT:   -3.402823060000000E+38
        -3.402823060000000E+38
   312. CELL (1,4,21) THICKNESS <= 0. TOP, BOT:   -3.402823060000000E+38
        -3.402823060000000E+38
   313. CELL (1,4,22) THICKNESS <= 0. TOP, BOT:   -3.402823060000000E+38
        -3.402823060000000E+38
   314. CELL (1,4,23) THICKNESS <= 0. TOP, BOT:   -3.402823060000000E+38
        -3.402823060000000E+38
   315. CELL (1,4,24) THICKNESS <= 0. TOP, BOT:   -3.402823060000000E+38
        -3.402823060000000E+38
   316. CELL (1,4,25) THICKNESS <= 0. TOP, BOT:   -3.402823060000000E+38
        -3.402823060000000E+38
   317. CELL (1,4,26) THICKNESS <= 0. TOP, BOT:   -3.402823060000000E+38
        -3.402823060000000E+38
   318. CELL (1,4,27) THICKNESS <= 0. TOP, BOT:   -3.402823060000000E+38
        -3.402823060000000E+38
   319. CELL (1,4,28) THICKNESS <= 0. TOP, BOT:   -3.402823060000000E+38
        -3.402823060000000E+38
   320. CELL (1,4,29) THICKNESS <= 0. TOP, BOT:   -3.402823060000000E+38
        -3.402823060000000E+38
   321. CELL (1,4,30) THICKNESS <= 0. TOP, BOT:   -3.402823060000000E+38
        -3.402823060000000E+38
   322. CELL (1,4,31) THICKNESS <= 0. TOP, BOT:   -3.402823060000000E+38
        -3.402823060000000E+38
   323. CELL (1,4,32) THICKNESS <= 0. TOP, BOT:   -3.402823060000000E+38
        -3.402823060000000E+38
   324. CELL (1,4,33) THICKNESS <= 0. TOP, BOT:   -3.402823060000000E+38
        -3.402823060000000E+38
   325. CELL (1,4,34) THICKNESS <= 0. TOP, BOT:   -3.402823060000000E+38
        -3.402823060000000E+38
   326. CELL (1,4,35) THICKNESS <= 0. TOP, BOT:   -3.402823060000000E+38
        -3.402823060000000E+38
   327. CELL (1,4,36) THICKNESS <= 0. TOP, BOT:   -3.402823060000000E+38
        -3.402823060000000E+38
   328. CELL (1,4,37) THICKNESS <= 0. TOP, BOT:   -3.402823060000000E+38
        -3.402823060000000E+38
   329. CELL (1,4,38) THICKNESS <= 0. TOP, BOT:   -3.402823060000000E+38
        -3.402823060000000E+38
   330. CELL (1,4,39) THICKNESS <= 0. TOP, BOT:   -3.402823060000000E+38
        -3.402823060000000E+38
   331. CELL (1,4,40) THICKNESS <= 0. TOP, BOT:   -3.402823060000000E+38
        -3.402823060000000E+38
   332. CELL (1,4,41) THICKNESS <= 0. TOP, BOT:   -3.402823060000000E+38
        -3.402823060000000E+38
   333. CELL (1,4,42) THICKNESS <= 0. TOP, BOT:   -3.402823060000000E+38
        -3.402823060000000E+38
   334. CELL (1,4,43) THICKNESS <= 0. TOP, BOT:   -3.402823060000000E+38
        -3.402823060000000E+38
   335. CELL (1,4,44) THICKNESS <= 0. TOP, BOT:   -3.402823060000000E+38
        -3.402823060000000E+38
   336. CELL (1,4,45) THICKNESS <= 0. TOP, BOT:   -3.402823060000000E+38
        -3.402823060000000E+38
   337. CELL (1,4,46) THICKNESS <= 0. TOP, BOT:   -3.402823060000000E+38
        -3.402823060000000E+38
   338. CELL (1,4,47) THICKNESS <= 0. TOP, BOT:   -3.402823060000000E+38
        -3.402823060000000E+38
   339. CELL (1,4,48) THICKNESS <= 0. TOP, BOT:   -3.402823060000000E+38
        -3.402823060000000E+38
   340. CELL (1,4,49) THICKNESS <= 0. TOP, BOT:   -3.402823060000000E+38
        -3.402823060000000E+38
   341. CELL (1,4,50) THICKNESS <= 0. TOP, BOT:   -3.402823060000000E+38
        -3.402823060000000E+38
   342. CELL (1,4,51) THICKNESS <= 0. TOP, BOT:   -3.402823060000000E+38
        -3.402823060000000E+38
   343. CELL (1,4,52) THICKNESS <= 0. TOP, BOT:   -3.402823060000000E+38
        -3.402823060000000E+38
   344. CELL (1,4,53) THICKNESS <= 0. TOP, BOT:   -3.402823060000000E+38
        -3.402823060000000E+38
   345. CELL (1,4,54) THICKNESS <= 0. TOP, BOT:   -3.402823060000000E+38
        -3.402823060000000E+38
   346. CELL (1,4,55) THICKNESS <= 0. TOP, BOT:   -3.402823060000000E+38
        -3.402823060000000E+38
   347. CELL (1,4,56) THICKNESS <= 0. TOP, BOT:   -3.402823060000000E+38
        -3.402823060000000E+38
   348. CELL (1,4,57) THICKNESS <= 0. TOP, BOT:   -3.402823060000000E+38
        -3.402823060000000E+38
   349. CELL (1,4,58) THICKNESS <= 0. TOP, BOT:   -3.402823060000000E+38
        -3.402823060000000E+38
   350. CELL (1,4,59) THICKNESS <= 0. TOP, BOT:   -3.402823060000000E+38
        -3.402823060000000E+38
   351. CELL (1,4,60) THICKNESS <= 0. TOP, BOT:   -3.402823060000000E+38
        -3.402823060000000E+38
   352. CELL (1,4,61) THICKNESS <= 0. TOP, BOT:   -3.402823060000000E+38
        -3.402823060000000E+38
   353. CELL (1,4,62) THICKNESS <= 0. TOP, BOT:   -3.402823060000000E+38
        -3.402823060000000E+38
   354. CELL (1,4,63) THICKNESS <= 0. TOP, BOT:   -3.402823060000000E+38
        -3.402823060000000E+38
   355. CELL (1,4,64) THICKNESS <= 0. TOP, BOT:   -3.402823060000000E+38
        -3.402823060000000E+38
   356. CELL (1,4,65) THICKNESS <= 0. TOP, BOT:   -3.402823060000000E+38
        -3.402823060000000E+38
   357. CELL (1,4,70) THICKNESS <= 0. TOP, BOT:   -3.402823060000000E+38
        -3.402823060000000E+38
   358. CELL (1,4,71) THICKNESS <= 0. TOP, BOT:   -3.402823060000000E+38
        -3.402823060000000E+38
   359. CELL (1,4,72) THICKNESS <= 0. TOP, BOT:   -3.402823060000000E+38
        -3.402823060000000E+38
   360. CELL (1,4,73) THICKNESS <= 0. TOP, BOT:   -3.402823060000000E+38
        -3.402823060000000E+38
   361. CELL (1,4,74) THICKNESS <= 0. TOP, BOT:   -3.402823060000000E+38
        -3.402823060000000E+38
   362. CELL (1,4,75) THICKNESS <= 0. TOP, BOT:   -3.402823060000000E+38
        -3.402823060000000E+38
   363. CELL (1,4,76) THICKNESS <= 0. TOP, BOT:   -3.402823060000000E+38
        -3.402823060000000E+38
   364. CELL (1,4,77) THICKNESS <= 0. TOP, BOT:   -3.402823060000000E+38
        -3.402823060000000E+38
   365. CELL (1,4,78) THICKNESS <= 0. TOP, BOT:   -3.402823060000000E+38
        -3.402823060000000E+38
   366. CELL (1,4,79) THICKNESS <= 0. TOP, BOT:   -3.402823060000000E+38
        -3.402823060000000E+38
   367. CELL (1,4,80) THICKNESS <= 0. TOP, BOT:   -3.402823060000000E+38
        -3.402823060000000E+38
   368. CELL (1,4,81) THICKNESS <= 0. TOP, BOT:   -3.402823060000000E+38
        -3.402823060000000E+38
   369. CELL (1,4,82) THICKNESS <= 0. TOP, BOT:   -3.402823060000000E+38
        -3.402823060000000E+38
   370. CELL (1,4,83) THICKNESS <= 0. TOP, BOT:   -3.402823060000000E+38
        -3.402823060000000E+38
   371. CELL (1,4,84) THICKNESS <= 0. TOP, BOT:   -3.402823060000000E+38
        -3.402823060000000E+38
   372. CELL (1,4,85) THICKNESS <= 0. TOP, BOT:   -3.402823060000000E+38
        -3.402823060000000E+38
   373. CELL (1,4,86) THICKNESS <= 0. TOP, BOT:   -3.402823060000000E+38
        -3.402823060000000E+38
   374. CELL (1,4,87) THICKNESS <= 0. TOP, BOT:   -3.402823060000000E+38
        -3.402823060000000E+38
   375. CELL (1,4,88) THICKNESS <= 0. TOP, BOT:   -3.402823060000000E+38
        -3.402823060000000E+38
   376. CELL (1,4,89) THICKNESS <= 0. TOP, BOT:   -3.402823060000000E+38
        -3.402823060000000E+38
   377. CELL (1,4,90) THICKNESS <= 0. TOP, BOT:   -3.402823060000000E+38
        -3.402823060000000E+38
   378. CELL (1,4,91) THICKNESS <= 0. TOP, BOT:   -3.402823060000000E+38
        -3.402823060000000E+38
   379. CELL (1,4,92) THICKNESS <= 0. TOP, BOT:   -3.402823060000000E+38
        -3.402823060000000E+38
   380. CELL (1,4,93) THICKNESS <= 0. TOP, BOT:   -3.402823060000000E+38
        -3.402823060000000E+38
   381. CELL (1,4,94) THICKNESS <= 0. TOP, BOT:   -3.402823060000000E+38
        -3.402823060000000E+38
   382. CELL (1,4,95) THICKNESS <= 0. TOP, BOT:   -3.402823060000000E+38
        -3.402823060000000E+38
   383. CELL (1,5,7) THICKNESS <= 0. TOP, BOT:   -3.402823060000000E+38
        -3.402823060000000E+38
   384. CELL (1,5,8) THICKNESS <= 0. TOP, BOT:   -3.402823060000000E+38
        -3.402823060000000E+38
   385. CELL (1,5,9) THICKNESS <= 0. TOP, BOT:   -3.402823060000000E+38
        -3.402823060000000E+38
   386. CELL (1,5,10) THICKNESS <= 0. TOP, BOT:   -3.402823060000000E+38
        -3.402823060000000E+38
   387. CELL (1,5,11) THICKNESS <= 0. TOP, BOT:   -3.402823060000000E+38
        -3.402823060000000E+38
   388. CELL (1,5,12) THICKNESS <= 0. TOP, BOT:   -3.402823060000000E+38
        -3.402823060000000E+38
   389. CELL (1,5,13) THICKNESS <= 0. TOP, BOT:   -3.402823060000000E+38
        -3.402823060000000E+38
   390. CELL (1,5,14) THICKNESS <= 0. TOP, BOT:   -3.402823060000000E+38
        -3.402823060000000E+38
   391. CELL (1,5,15) THICKNESS <= 0. TOP, BOT:   -3.402823060000000E+38
        -3.402823060000000E+38
   392. CELL (1,5,16) THICKNESS <= 0. TOP, BOT:   -3.402823060000000E+38
        -3.402823060000000E+38
   393. CELL (1,5,17) THICKNESS <= 0. TOP, BOT:   -3.402823060000000E+38
        -3.402823060000000E+38
   394. CELL (1,5,18) THICKNESS <= 0. TOP, BOT:   -3.402823060000000E+38
        -3.402823060000000E+38
   395. CELL (1,5,19) THICKNESS <= 0. TOP, BOT:   -3.402823060000000E+38
        -3.402823060000000E+38
   396. CELL (1,5,20) THICKNESS <= 0. TOP, BOT:   -3.402823060000000E+38
        -3.402823060000000E+38
   397. CELL (1,5,21) THICKNESS <= 0. TOP, BOT:   -3.402823060000000E+38
        -3.402823060000000E+38
   398. CELL (1,5,22) THICKNESS <= 0. TOP, BOT:   -3.402823060000000E+38
        -3.402823060000000E+38
   399. CELL (1,5,23) THICKNESS <= 0. TOP, BOT:   -3.402823060000000E+38
        -3.402823060000000E+38
   400. CELL (1,5,24) THICKNESS <= 0. TOP, BOT:   -3.402823060000000E+38
        -3.402823060000000E+38
   401. CELL (1,5,25) THICKNESS <= 0. TOP, BOT:   -3.402823060000000E+38
        -3.402823060000000E+38
   402. CELL (1,5,26) THICKNESS <= 0. TOP, BOT:   -3.402823060000000E+38
        -3.402823060000000E+38
   403. CELL (1,5,27) THICKNESS <= 0. TOP, BOT:   -3.402823060000000E+38
        -3.402823060000000E+38
   404. CELL (1,5,28) THICKNESS <= 0. TOP, BOT:   -3.402823060000000E+38
        -3.402823060000000E+38
   405. CELL (1,5,29) THICKNESS <= 0. TOP, BOT:   -3.402823060000000E+38
        -3.402823060000000E+38
   406. CELL (1,5,30) THICKNESS <= 0. TOP, BOT:   -3.402823060000000E+38
        -3.402823060000000E+38
   407. CELL (1,5,31) THICKNESS <= 0. TOP, BOT:   -3.402823060000000E+38
        -3.402823060000000E+38
   408. CELL (1,5,32) THICKNESS <= 0. TOP, BOT:   -3.402823060000000E+38
        -3.402823060000000E+38
   409. CELL (1,5,33) THICKNESS <= 0. TOP, BOT:   -3.402823060000000E+38
        -3.402823060000000E+38
   410. CELL (1,5,34) THICKNESS <= 0. TOP, BOT:   -3.402823060000000E+38
        -3.402823060000000E+38
   411. CELL (1,5,35) THICKNESS <= 0. TOP, BOT:   -3.402823060000000E+38
        -3.402823060000000E+38
   412. CELL (1,5,36) THICKNESS <= 0. TOP, BOT:   -3.402823060000000E+38
        -3.402823060000000E+38
   413. CELL (1,5,37) THICKNESS <= 0. TOP, BOT:   -3.402823060000000E+38
        -3.402823060000000E+38
   414. CELL (1,5,38) THICKNESS <= 0. TOP, BOT:   -3.402823060000000E+38
        -3.402823060000000E+38
   415. CELL (1,5,39) THICKNESS <= 0. TOP, BOT:   -3.402823060000000E+38
        -3.402823060000000E+38
   416. CELL (1,5,40) THICKNESS <= 0. TOP, BOT:   -3.402823060000000E+38
        -3.402823060000000E+38
   417. CELL (1,5,41) THICKNESS <= 0. TOP, BOT:   -3.402823060000000E+38
        -3.402823060000000E+38
   418. CELL (1,5,42) THICKNESS <= 0. TOP, BOT:   -3.402823060000000E+38
        -3.402823060000000E+38
   419. CELL (1,5,43) THICKNESS <= 0. TOP, BOT:   -3.402823060000000E+38
        -3.402823060000000E+38
   420. CELL (1,5,44) THICKNESS <= 0. TOP, BOT:   -3.402823060000000E+38
        -3.402823060000000E+38
   421. CELL (1,5,45) THICKNESS <= 0. TOP, BOT:   -3.402823060000000E+38
        -3.402823060000000E+38
   422. CELL (1,5,46) THICKNESS <= 0. TOP, BOT:   -3.402823060000000E+38
        -3.402823060000000E+38
   423. CELL (1,5,47) THICKNESS <= 0. TOP, BOT:   -3.402823060000000E+38
        -3.402823060000000E+38
   424. CELL (1,5,48) THICKNESS <= 0. TOP, BOT:   -3.402823060000000E+38
        -3.402823060000000E+38
   425. CELL (1,5,49) THICKNESS <= 0. TOP, BOT:   -3.402823060000000E+38
        -3.402823060000000E+38
   426. CELL (1,5,50) THICKNESS <= 0. TOP, BOT:   -3.402823060000000E+38
        -3.402823060000000E+38
   427. CELL (1,5,51) THICKNESS <= 0. TOP, BOT:   -3.402823060000000E+38
        -3.402823060000000E+38
   428. CELL (1,5,52) THICKNESS <= 0. TOP, BOT:   -3.402823060000000E+38
        -3.402823060000000E+38
   429. CELL (1,5,53) THICKNESS <= 0. TOP, BOT:   -3.402823060000000E+38
        -3.402823060000000E+38
   430. CELL (1,5,54) THICKNESS <= 0. TOP, BOT:   -3.402823060000000E+38
        -3.402823060000000E+38
   431. CELL (1,5,55) THICKNESS <= 0. TOP, BOT:   -3.402823060000000E+38
        -3.402823060000000E+38
   432. CELL (1,5,56) THICKNESS <= 0. TOP, BOT:   -3.402823060000000E+38
        -3.402823060000000E+38
   433. CELL (1,5,57) THICKNESS <= 0. TOP, BOT:   -3.402823060000000E+38
        -3.402823060000000E+38
   434. CELL (1,5,58) THICKNESS <= 0. TOP, BOT:   -3.402823060000000E+38
        -3.402823060000000E+38
   435. CELL (1,5,59) THICKNESS <= 0. TOP, BOT:   -3.402823060000000E+38
        -3.402823060000000E+38
   436. CELL (1,5,60) THICKNESS <= 0. TOP, BOT:   -3.402823060000000E+38
        -3.402823060000000E+38
   437. CELL (1,5,61) THICKNESS <= 0. TOP, BOT:   -3.402823060000000E+38
        -3.402823060000000E+38
   438. CELL (1,5,62) THICKNESS <= 0. TOP, BOT:   -3.402823060000000E+38
        -3.402823060000000E+38
   439. CELL (1,5,63) THICKNESS <= 0. TOP, BOT:   -3.402823060000000E+38
        -3.402823060000000E+38
   440. CELL (1,5,64) THICKNESS <= 0. TOP, BOT:   -3.402823060000000E+38
        -3.402823060000000E+38
   441. CELL (1,5,65) THICKNESS <= 0. TOP, BOT:   -3.402823060000000E+38
        -3.402823060000000E+38
   442. CELL (1,5,66) THICKNESS <= 0. TOP, BOT:   -3.402823060000000E+38
        -3.402823060000000E+38
   443. CELL (1,5,67) THICKNESS <= 0. TOP, BOT:   -3.402823060000000E+38
        -3.402823060000000E+38
   444. CELL (1,5,68) THICKNESS <= 0. TOP, BOT:   -3.402823060000000E+38
        -3.402823060000000E+38
   445. CELL (1,5,69) THICKNESS <= 0. TOP, BOT:   -3.402823060000000E+38
        -3.402823060000000E+38
   446. CELL (1,5,70) THICKNESS <= 0. TOP, BOT:   -3.402823060000000E+38
        -3.402823060000000E+38
   447. CELL (1,5,71) THICKNESS <= 0. TOP, BOT:   -3.402823060000000E+38
        -3.402823060000000E+38
   448. CELL (1,5,72) THICKNESS <= 0. TOP, BOT:   -3.402823060000000E+38
        -3.402823060000000E+38
   449. CELL (1,5,73) THICKNESS <= 0. TOP, BOT:   -3.402823060000000E+38
        -3.402823060000000E+38
   450. CELL (1,5,74) THICKNESS <= 0. TOP, BOT:   -3.402823060000000E+38
        -3.402823060000000E+38
   451. CELL (1,5,75) THICKNESS <= 0. TOP, BOT:   -3.402823060000000E+38
        -3.402823060000000E+38
   452. CELL (1,5,76) THICKNESS <= 0. TOP, BOT:   -3.402823060000000E+38
        -3.402823060000000E+38
   453. CELL (1,5,85) THICKNESS <= 0. TOP, BOT:   -3.402823060000000E+38
        -3.402823060000000E+38
   454. CELL (1,5,86) THICKNESS <= 0. TOP, BOT:   -3.402823060000000E+38
        -3.402823060000000E+38
   455. CELL (1,5,87) THICKNESS <= 0. TOP, BOT:   -3.402823060000000E+38
        -3.402823060000000E+38
   456. CELL (1,5,88) THICKNESS <= 0. TOP, BOT:   -3.402823060000000E+38
        -3.402823060000000E+38
   457. CELL (1,5,89) THICKNESS <= 0. TOP, BOT:   -3.402823060000000E+38
        -3.402823060000000E+38
   458. CELL (1,5,90) THICKNESS <= 0. TOP, BOT:   -3.402823060000000E+38
        -3.402823060000000E+38
   459. CELL (1,5,91) THICKNESS <= 0. TOP, BOT:   -3.402823060000000E+38
        -3.402823060000000E+38
   460. CELL (1,5,92) THICKNESS <= 0. TOP, BOT:   -3.402823060000000E+38
        -3.402823060000000E+38
   461. CELL (1,5,93) THICKNESS <= 0. TOP, BOT:   -3.402823060000000E+38
        -3.402823060000000E+38
   462. CELL (1,5,94) THICKNESS <= 0. TOP, BOT:   -3.402823060000000E+38
        -3.402823060000000E+38
   463. CELL (1,5,95) THICKNESS <= 0. TOP, BOT:   -3.402823060000000E+38
        -3.402823060000000E+38
   464. CELL (1,5,96) THICKNESS <= 0. TOP, BOT:   -3.402823060000000E+38
        -3.402823060000000E+38
   465. CELL (1,5,97) THICKNESS <= 0. TOP, BOT:   -3.402823060000000E+38
        -3.402823060000000E+38
   466. CELL (1,5,98) THICKNESS <= 0. TOP, BOT:   -3.402823060000000E+38
        -3.402823060000000E+38
   467. CELL (1,5,99) THICKNESS <= 0. TOP, BOT:   -3.402823060000000E+38
        -3.402823060000000E+38
   468. CELL (1,5,100) THICKNESS <= 0. TOP, BOT:   -3.402823060000000E+38
        -3.402823060000000E+38
   469. CELL (1,5,101) THICKNESS <= 0. TOP, BOT:   -3.402823060000000E+38
        -3.402823060000000E+38
   470. CELL (1,5,102) THICKNESS <= 0. TOP, BOT:   -3.402823060000000E+38
        -3.402823060000000E+38
   471. CELL (1,5,103) THICKNESS <= 0. TOP, BOT:   -3.402823060000000E+38
        -3.402823060000000E+38
   472. CELL (1,5,104) THICKNESS <= 0. TOP, BOT:   -3.402823060000000E+38
        -3.402823060000000E+38
   473. CELL (1,5,105) THICKNESS <= 0. TOP, BOT:   -3.402823060000000E+38
        -3.402823060000000E+38
   474. CELL (1,6,19) THICKNESS <= 0. TOP, BOT:   -3.402823060000000E+38
        -3.402823060000000E+38
   475. CELL (1,6,20) THICKNESS <= 0. TOP, BOT:   -3.402823060000000E+38
        -3.402823060000000E+38
   476. CELL (1,6,21) THICKNESS <= 0. TOP, BOT:   -3.402823060000000E+38
        -3.402823060000000E+38
   477. CELL (1,6,22) THICKNESS <= 0. TOP, BOT:   -3.402823060000000E+38
        -3.402823060000000E+38
   478. CELL (1,6,23) THICKNESS <= 0. TOP, BOT:   -3.402823060000000E+38
        -3.402823060000000E+38
   479. CELL (1,6,24) THICKNESS <= 0. TOP, BOT:   -3.402823060000000E+38
        -3.402823060000000E+38
   480. CELL (1,6,25) THICKNESS <= 0. TOP, BOT:   -3.402823060000000E+38
        -3.402823060000000E+38
   481. CELL (1,6,26) THICKNESS <= 0. TOP, BOT:   -3.402823060000000E+38
        -3.402823060000000E+38
   482. CELL (1,6,27) THICKNESS <= 0. TOP, BOT:   -3.402823060000000E+38
        -3.402823060000000E+38
   483. CELL (1,6,28) THICKNESS <= 0. TOP, BOT:   -3.402823060000000E+38
        -3.402823060000000E+38
   484. CELL (1,6,29) THICKNESS <= 0. TOP, BOT:   -3.402823060000000E+38
        -3.402823060000000E+38
   485. CELL (1,6,30) THICKNESS <= 0. TOP, BOT:   -3.402823060000000E+38
        -3.402823060000000E+38
   486. CELL (1,6,31) THICKNESS <= 0. TOP, BOT:   -3.402823060000000E+38
        -3.402823060000000E+38
   487. CELL (1,6,32) THICKNESS <= 0. TOP, BOT:   -3.402823060000000E+38
        -3.402823060000000E+38
   488. CELL (1,6,33) THICKNESS <= 0. TOP, BOT:   -3.402823060000000E+38
        -3.402823060000000E+38
   489. CELL (1,6,34) THICKNESS <= 0. TOP, BOT:   -3.402823060000000E+38
        -3.402823060000000E+38
   490. CELL (1,6,35) THICKNESS <= 0. TOP, BOT:   -3.402823060000000E+38
        -3.402823060000000E+38
   491. CELL (1,6,36) THICKNESS <= 0. TOP, BOT:   -3.402823060000000E+38
        -3.402823060000000E+38
   492. CELL (1,6,37) THICKNESS <= 0. TOP, BOT:   -3.402823060000000E+38
        -3.402823060000000E+38
   493. CELL (1,6,38) THICKNESS <= 0. TOP, BOT:   -3.402823060000000E+38
        -3.402823060000000E+38
   494. CELL (1,6,39) THICKNESS <= 0. TOP, BOT:   -3.402823060000000E+38
        -3.402823060000000E+38
   495. CELL (1,6,40) THICKNESS <= 0. TOP, BOT:   -3.402823060000000E+38
        -3.402823060000000E+38
   496. CELL (1,6,41) THICKNESS <= 0. TOP, BOT:   -3.402823060000000E+38
        -3.402823060000000E+38
   497. CELL (1,6,42) THICKNESS <= 0. TOP, BOT:   -3.402823060000000E+38
        -3.402823060000000E+38
   498. CELL (1,6,43) THICKNESS <= 0. TOP, BOT:   -3.402823060000000E+38
        -3.402823060000000E+38
   499. CELL (1,6,44) THICKNESS <= 0. TOP, BOT:   -3.402823060000000E+38
        -3.402823060000000E+38
   500. CELL (1,6,45) THICKNESS <= 0. TOP, BOT:   -3.402823060000000E+38
        -3.402823060000000E+38
   501. CELL (1,6,46) THICKNESS <= 0. TOP, BOT:   -3.402823060000000E+38
        -3.402823060000000E+38
   502. CELL (1,6,47) THICKNESS <= 0. TOP, BOT:   -3.402823060000000E+38
        -3.402823060000000E+38
   503. CELL (1,6,48) THICKNESS <= 0. TOP, BOT:   -3.402823060000000E+38
        -3.402823060000000E+38
   504. CELL (1,6,49) THICKNESS <= 0. TOP, BOT:   -3.402823060000000E+38
        -3.402823060000000E+38
   505. CELL (1,6,50) THICKNESS <= 0. TOP, BOT:   -3.402823060000000E+38
        -3.402823060000000E+38
   506. CELL (1,6,51) THICKNESS <= 0. TOP, BOT:   -3.402823060000000E+38
        -3.402823060000000E+38
   507. CELL (1,6,52) THICKNESS <= 0. TOP, BOT:   -3.402823060000000E+38
        -3.402823060000000E+38
   508. CELL (1,6,53) THICKNESS <= 0. TOP, BOT:   -3.402823060000000E+38
        -3.402823060000000E+38
   509. CELL (1,6,54) THICKNESS <= 0. TOP, BOT:   -3.402823060000000E+38
        -3.402823060000000E+38
   510. CELL (1,6,55) THICKNESS <= 0. TOP, BOT:   -3.402823060000000E+38
        -3.402823060000000E+38
   511. CELL (1,6,56) THICKNESS <= 0. TOP, BOT:   -3.402823060000000E+38
        -3.402823060000000E+38
   512. CELL (1,6,57) THICKNESS <= 0. TOP, BOT:   -3.402823060000000E+38
        -3.402823060000000E+38
   513. CELL (1,6,58) THICKNESS <= 0. TOP, BOT:   -3.402823060000000E+38
        -3.402823060000000E+38
   514. CELL (1,6,59) THICKNESS <= 0. TOP, BOT:   -3.402823060000000E+38
        -3.402823060000000E+38
   515. CELL (1,6,60) THICKNESS <= 0. TOP, BOT:   -3.402823060000000E+38
        -3.402823060000000E+38
   516. CELL (1,6,61) THICKNESS <= 0. TOP, BOT:   -3.402823060000000E+38
        -3.402823060000000E+38
   517. CELL (1,6,62) THICKNESS <= 0. TOP, BOT:   -3.402823060000000E+38
        -3.402823060000000E+38
   518. CELL (1,6,63) THICKNESS <= 0. TOP, BOT:   -3.402823060000000E+38
        -3.402823060000000E+38
   519. CELL (1,6,64) THICKNESS <= 0. TOP, BOT:   -3.402823060000000E+38
        -3.402823060000000E+38
   520. CELL (1,6,65) THICKNESS <= 0. TOP, BOT:   -3.402823060000000E+38
        -3.402823060000000E+38
   521. CELL (1,6,66) THICKNESS <= 0. TOP, BOT:   -3.402823060000000E+38
        -3.402823060000000E+38
   522. CELL (1,6,67) THICKNESS <= 0. TOP, BOT:   -3.402823060000000E+38
        -3.402823060000000E+38
   523. CELL (1,6,68) THICKNESS <= 0. TOP, BOT:   -3.402823060000000E+38
        -3.402823060000000E+38
   524. CELL (1,6,69) THICKNESS <= 0. TOP, BOT:   -3.402823060000000E+38
        -3.402823060000000E+38
   525. CELL (1,6,70) THICKNESS <= 0. TOP, BOT:   -3.402823060000000E+38
        -3.402823060000000E+38
   526. CELL (1,6,71) THICKNESS <= 0. TOP, BOT:   -3.402823060000000E+38
        -3.402823060000000E+38
   527. CELL (1,6,72) THICKNESS <= 0. TOP, BOT:   -3.402823060000000E+38
        -3.402823060000000E+38
   528. CELL (1,6,73) THICKNESS <= 0. TOP, BOT:   -3.402823060000000E+38
        -3.402823060000000E+38
   529. CELL (1,6,74) THICKNESS <= 0. TOP, BOT:   -3.402823060000000E+38
        -3.402823060000000E+38
   530. CELL (1,6,75) THICKNESS <= 0. TOP, BOT:   -3.402823060000000E+38
        -3.402823060000000E+38
   531. CELL (1,6,76) THICKNESS <= 0. TOP, BOT:   -3.402823060000000E+38
        -3.402823060000000E+38
   532. CELL (1,6,77) THICKNESS <= 0. TOP, BOT:   -3.402823060000000E+38
        -3.402823060000000E+38
   533. CELL (1,6,78) THICKNESS <= 0. TOP, BOT:   -3.402823060000000E+38
        -3.402823060000000E+38
   534. CELL (1,6,79) THICKNESS <= 0. TOP, BOT:   -3.402823060000000E+38
        -3.402823060000000E+38
   535. CELL (1,6,80) THICKNESS <= 0. TOP, BOT:   -3.402823060000000E+38
        -3.402823060000000E+38
   536. CELL (1,6,81) THICKNESS <= 0. TOP, BOT:   -3.402823060000000E+38
        -3.402823060000000E+38
   537. CELL (1,6,82) THICKNESS <= 0. TOP, BOT:   -3.402823060000000E+38
        -3.402823060000000E+38
   538. CELL (1,6,83) THICKNESS <= 0. TOP, BOT:   -3.402823060000000E+38
        -3.402823060000000E+38
   539. CELL (1,6,84) THICKNESS <= 0. TOP, BOT:   -3.402823060000000E+38
        -3.402823060000000E+38
   540. CELL (1,6,85) THICKNESS <= 0. TOP, BOT:   -3.402823060000000E+38
        -3.402823060000000E+38
   541. CELL (1,6,86) THICKNESS <= 0. TOP, BOT:   -3.402823060000000E+38
        -3.402823060000000E+38
   542. CELL (1,6,87) THICKNESS <= 0. TOP, BOT:   -3.402823060000000E+38
        -3.402823060000000E+38
   543. CELL (1,6,88) THICKNESS <= 0. TOP, BOT:   -3.402823060000000E+38
        -3.402823060000000E+38
   544. CELL (1,6,98) THICKNESS <= 0. TOP, BOT:   -3.402823060000000E+38
        -3.402823060000000E+38
   545. CELL (1,6,99) THICKNESS <= 0. TOP, BOT:   -3.402823060000000E+38
        -3.402823060000000E+38
   546. CELL (1,6,100) THICKNESS <= 0. TOP, BOT:   -3.402823060000000E+38
        -3.402823060000000E+38
   547. CELL (1,6,101) THICKNESS <= 0. TOP, BOT:   -3.402823060000000E+38
        -3.402823060000000E+38
   548. CELL (1,6,102) THICKNESS <= 0. TOP, BOT:   -3.402823060000000E+38
        -3.402823060000000E+38
   549. CELL (1,6,103) THICKNESS <= 0. TOP, BOT:   -3.402823060000000E+38
        -3.402823060000000E+38
   550. CELL (1,6,104) THICKNESS <= 0. TOP, BOT:   -3.402823060000000E+38
        -3.402823060000000E+38
   551. CELL (1,6,105) THICKNESS <= 0. TOP, BOT:   -3.402823060000000E+38
        -3.402823060000000E+38
   552. CELL (1,7,1) THICKNESS <= 0. TOP, BOT:   -3.402823060000000E+38
        -3.402823060000000E+38
   553. CELL (1,7,2) THICKNESS <= 0. TOP, BOT:   -3.402823060000000E+38
        -3.402823060000000E+38
   554. CELL (1,7,3) THICKNESS <= 0. TOP, BOT:   -3.402823060000000E+38
        -3.402823060000000E+38
   555. CELL (1,7,4) THICKNESS <= 0. TOP, BOT:   -3.402823060000000E+38
        -3.402823060000000E+38
   556. CELL (1,7,5) THICKNESS <= 0. TOP, BOT:   -3.402823060000000E+38
        -3.402823060000000E+38
   557. CELL (1,7,6) THICKNESS <= 0. TOP, BOT:   -3.402823060000000E+38
        -3.402823060000000E+38
   558. CELL (1,7,7) THICKNESS <= 0. TOP, BOT:   -3.402823060000000E+38
        -3.402823060000000E+38
   559. CELL (1,7,8) THICKNESS <= 0. TOP, BOT:   -3.402823060000000E+38
        -3.402823060000000E+38
   560. CELL (1,7,9) THICKNESS <= 0. TOP, BOT:   -3.402823060000000E+38
        -3.402823060000000E+38
   561. CELL (1,7,10) THICKNESS <= 0. TOP, BOT:   -3.402823060000000E+38
        -3.402823060000000E+38
   562. CELL (1,7,31) THICKNESS <= 0. TOP, BOT:   -3.402823060000000E+38
        -3.402823060000000E+38
   563. CELL (1,7,32) THICKNESS <= 0. TOP, BOT:   -3.402823060000000E+38
        -3.402823060000000E+38
   564. CELL (1,7,33) THICKNESS <= 0. TOP, BOT:   -3.402823060000000E+38
        -3.402823060000000E+38
   565. CELL (1,7,34) THICKNESS <= 0. TOP, BOT:   -3.402823060000000E+38
        -3.402823060000000E+38
   566. CELL (1,7,35) THICKNESS <= 0. TOP, BOT:   -3.402823060000000E+38
        -3.402823060000000E+38
   567. CELL (1,7,36) THICKNESS <= 0. TOP, BOT:   -3.402823060000000E+38
        -3.402823060000000E+38
   568. CELL (1,7,37) THICKNESS <= 0. TOP, BOT:   -3.402823060000000E+38
        -3.402823060000000E+38
   569. CELL (1,7,38) THICKNESS <= 0. TOP, BOT:   -3.402823060000000E+38
        -3.402823060000000E+38
   570. CELL (1,7,39) THICKNESS <= 0. TOP, BOT:   -3.402823060000000E+38
        -3.402823060000000E+38
   571. CELL (1,7,40) THICKNESS <= 0. TOP, BOT:   -3.402823060000000E+38
        -3.402823060000000E+38
   572. CELL (1,7,41) THICKNESS <= 0. TOP, BOT:   -3.402823060000000E+38
        -3.402823060000000E+38
   573. CELL (1,7,42) THICKNESS <= 0. TOP, BOT:   -3.402823060000000E+38
        -3.402823060000000E+38
   574. CELL (1,7,43) THICKNESS <= 0. TOP, BOT:   -3.402823060000000E+38
        -3.402823060000000E+38
   575. CELL (1,7,44) THICKNESS <= 0. TOP, BOT:   -3.402823060000000E+38
        -3.402823060000000E+38
   576. CELL (1,7,45) THICKNESS <= 0. TOP, BOT:   -3.402823060000000E+38
        -3.402823060000000E+38
   577. CELL (1,7,46) THICKNESS <= 0. TOP, BOT:   -3.402823060000000E+38
        -3.402823060000000E+38
   578. CELL (1,7,47) THICKNESS <= 0. TOP, BOT:   -3.402823060000000E+38
        -3.402823060000000E+38
   579. CELL (1,7,48) THICKNESS <= 0. TOP, BOT:   -3.402823060000000E+38
        -3.402823060000000E+38
   580. CELL (1,7,49) THICKNESS <= 0. TOP, BOT:   -3.402823060000000E+38
        -3.402823060000000E+38
   581. CELL (1,7,50) THICKNESS <= 0. TOP, BOT:   -3.402823060000000E+38
        -3.402823060000000E+38
   582. CELL (1,7,51) THICKNESS <= 0. TOP, BOT:   -3.402823060000000E+38
        -3.402823060000000E+38
   583. CELL (1,7,52) THICKNESS <= 0. TOP, BOT:   -3.402823060000000E+38
        -3.402823060000000E+38
   584. CELL (1,7,53) THICKNESS <= 0. TOP, BOT:   -3.402823060000000E+38
        -3.402823060000000E+38
   585. CELL (1,7,54) THICKNESS <= 0. TOP, BOT:   -3.402823060000000E+38
        -3.402823060000000E+38
   586. CELL (1,7,55) THICKNESS <= 0. TOP, BOT:   -3.402823060000000E+38
        -3.402823060000000E+38
   587. CELL (1,7,56) THICKNESS <= 0. TOP, BOT:   -3.402823060000000E+38
        -3.402823060000000E+38
   588. CELL (1,7,57) THICKNESS <= 0. TOP, BOT:   -3.402823060000000E+38
        -3.402823060000000E+38
   589. CELL (1,7,58) THICKNESS <= 0. TOP, BOT:   -3.402823060000000E+38
        -3.402823060000000E+38
   590. CELL (1,7,59) THICKNESS <= 0. TOP, BOT:   -3.402823060000000E+38
        -3.402823060000000E+38
   591. CELL (1,7,60) THICKNESS <= 0. TOP, BOT:   -3.402823060000000E+38
        -3.402823060000000E+38
   592. CELL (1,7,61) THICKNESS <= 0. TOP, BOT:   -3.402823060000000E+38
        -3.402823060000000E+38
   593. CELL (1,7,62) THICKNESS <= 0. TOP, BOT:   -3.402823060000000E+38
        -3.402823060000000E+38
   594. CELL (1,7,63) THICKNESS <= 0. TOP, BOT:   -3.402823060000000E+38
        -3.402823060000000E+38
   595. CELL (1,7,64) THICKNESS <= 0. TOP, BOT:   -3.402823060000000E+38
        -3.402823060000000E+38
   596. CELL (1,7,65) THICKNESS <= 0. TOP, BOT:   -3.402823060000000E+38
        -3.402823060000000E+38
   597. CELL (1,7,66) THICKNESS <= 0. TOP, BOT:   -3.402823060000000E+38
        -3.402823060000000E+38
   598. CELL (1,7,67) THICKNESS <= 0. TOP, BOT:   -3.402823060000000E+38
        -3.402823060000000E+38
   599. CELL (1,7,68) THICKNESS <= 0. TOP, BOT:   -3.402823060000000E+38
        -3.402823060000000E+38
   600. CELL (1,7,69) THICKNESS <= 0. TOP, BOT:   -3.402823060000000E+38
        -3.402823060000000E+38
   601. CELL (1,7,70) THICKNESS <= 0. TOP, BOT:   -3.402823060000000E+38
        -3.402823060000000E+38
   602. CELL (1,7,71) THICKNESS <= 0. TOP, BOT:   -3.402823060000000E+38
        -3.402823060000000E+38
   603. CELL (1,7,72) THICKNESS <= 0. TOP, BOT:   -3.402823060000000E+38
        -3.402823060000000E+38
   604. CELL (1,7,73) THICKNESS <= 0. TOP, BOT:   -3.402823060000000E+38
        -3.402823060000000E+38
   605. CELL (1,7,74) THICKNESS <= 0. TOP, BOT:   -3.402823060000000E+38
        -3.402823060000000E+38
   606. CELL (1,7,75) THICKNESS <= 0. TOP, BOT:   -3.402823060000000E+38
        -3.402823060000000E+38
   607. CELL (1,7,76) THICKNESS <= 0. TOP, BOT:   -3.402823060000000E+38
        -3.402823060000000E+38
   608. CELL (1,7,77) THICKNESS <= 0. TOP, BOT:   -3.402823060000000E+38
        -3.402823060000000E+38
   609. CELL (1,7,78) THICKNESS <= 0. TOP, BOT:   -3.402823060000000E+38
        -3.402823060000000E+38
   610. CELL (1,7,79) THICKNESS <= 0. TOP, BOT:   -3.402823060000000E+38
        -3.402823060000000E+38
   611. CELL (1,7,80) THICKNESS <= 0. TOP, BOT:   -3.402823060000000E+38
        -3.402823060000000E+38
   612. CELL (1,7,81) THICKNESS <= 0. TOP, BOT:   -3.402823060000000E+38
        -3.402823060000000E+38
   613. CELL (1,7,82) THICKNESS <= 0. TOP, BOT:   -3.402823060000000E+38
        -3.402823060000000E+38
   614. CELL (1,7,83) THICKNESS <= 0. TOP, BOT:   -3.402823060000000E+38
        -3.402823060000000E+38
   615. CELL (1,7,84) THICKNESS <= 0. TOP, BOT:   -3.402823060000000E+38
        -3.402823060000000E+38
   616. CELL (1,7,85) THICKNESS <= 0. TOP, BOT:   -3.402823060000000E+38
        -3.402823060000000E+38
   617. CELL (1,7,86) THICKNESS <= 0. TOP, BOT:   -3.402823060000000E+38
        -3.402823060000000E+38
   618. CELL (1,7,87) THICKNESS <= 0. TOP, BOT:   -3.402823060000000E+38
        -3.402823060000000E+38
   619. CELL (1,7,88) THICKNESS <= 0. TOP, BOT:   -3.402823060000000E+38
        -3.402823060000000E+38
   620. CELL (1,7,89) THICKNESS <= 0. TOP, BOT:   -3.402823060000000E+38
        -3.402823060000000E+38
   621. CELL (1,7,90) THICKNESS <= 0. TOP, BOT:   -3.402823060000000E+38
        -3.402823060000000E+38
   622. CELL (1,7,91) THICKNESS <= 0. TOP, BOT:   -3.402823060000000E+38
        -3.402823060000000E+38
   623. CELL (1,7,92) THICKNESS <= 0. TOP, BOT:   -3.402823060000000E+38
        -3.402823060000000E+38
   624. CELL (1,7,93) THICKNESS <= 0. TOP, BOT:   -3.402823060000000E+38
        -3.402823060000000E+38
   625. CELL (1,7,94) THICKNESS <= 0. TOP, BOT:   -3.402823060000000E+38
        -3.402823060000000E+38
   626. CELL (1,7,95) THICKNESS <= 0. TOP, BOT:   -3.402823060000000E+38
        -3.402823060000000E+38
   627. CELL (1,7,96) THICKNESS <= 0. TOP, BOT:   -3.402823060000000E+38
        -3.402823060000000E+38
   628. CELL (1,7,97) THICKNESS <= 0. TOP, BOT:   -3.402823060000000E+38
        -3.402823060000000E+38
   629. CELL (1,7,98) THICKNESS <= 0. TOP, BOT:   -3.402823060000000E+38
        -3.402823060000000E+38
   630. CELL (1,7,99) THICKNESS <= 0. TOP, BOT:   -3.402823060000000E+38
        -3.402823060000000E+38
   631. CELL (1,8,7) THICKNESS <= 0. TOP, BOT:   -3.402823060000000E+38
        -3.402823060000000E+38
   632. CELL (1,8,8) THICKNESS <= 0. TOP, BOT:   -3.402823060000000E+38
        -3.402823060000000E+38
   633. CELL (1,8,9) THICKNESS <= 0. TOP, BOT:   -3.402823060000000E+38
        -3.402823060000000E+38
   634. CELL (1,8,10) THICKNESS <= 0. TOP, BOT:   -3.402823060000000E+38
        -3.402823060000000E+38
   635. CELL (1,8,11) THICKNESS <= 0. TOP, BOT:   -3.402823060000000E+38
        -3.402823060000000E+38
   636. CELL (1,8,12) THICKNESS <= 0. TOP, BOT:   -3.402823060000000E+38
        -3.402823060000000E+38
   637. CELL (1,8,13) THICKNESS <= 0. TOP, BOT:   -3.402823060000000E+38
        -3.402823060000000E+38
   638. CELL (1,8,14) THICKNESS <= 0. TOP, BOT:   -3.402823060000000E+38
        -3.402823060000000E+38
   639. CELL (1,8,15) THICKNESS <= 0. TOP, BOT:   -3.402823060000000E+38
        -3.402823060000000E+38
   640. CELL (1,8,16) THICKNESS <= 0. TOP, BOT:   -3.402823060000000E+38
        -3.402823060000000E+38
   641. CELL (1,8,17) THICKNESS <= 0. TOP, BOT:   -3.402823060000000E+38
        -3.402823060000000E+38
   642. CELL (1,8,18) THICKNESS <= 0. TOP, BOT:   -3.402823060000000E+38
        -3.402823060000000E+38
   643. CELL (1,8,19) THICKNESS <= 0. TOP, BOT:   -3.402823060000000E+38
        -3.402823060000000E+38
   644. CELL (1,8,42) THICKNESS <= 0. TOP, BOT:   -3.402823060000000E+38
        -3.402823060000000E+38
   645. CELL (1,8,43) THICKNESS <= 0. TOP, BOT:   -3.402823060000000E+38
        -3.402823060000000E+38
   646. CELL (1,8,44) THICKNESS <= 0. TOP, BOT:   -3.402823060000000E+38
        -3.402823060000000E+38
   647. CELL (1,8,45) THICKNESS <= 0. TOP, BOT:   -3.402823060000000E+38
        -3.402823060000000E+38
   648. CELL (1,8,46) THICKNESS <= 0. TOP, BOT:   -3.402823060000000E+38
        -3.402823060000000E+38
   649. CELL (1,8,47) THICKNESS <= 0. TOP, BOT:   -3.402823060000000E+38
        -3.402823060000000E+38
   650. CELL (1,8,48) THICKNESS <= 0. TOP, BOT:   -3.402823060000000E+38
        -3.402823060000000E+38
   651. CELL (1,8,49) THICKNESS <= 0. TOP, BOT:   -3.402823060000000E+38
        -3.402823060000000E+38
   652. CELL (1,8,50) THICKNESS <= 0. TOP, BOT:   -3.402823060000000E+38
        -3.402823060000000E+38
   653. CELL (1,8,51) THICKNESS <= 0. TOP, BOT:   -3.402823060000000E+38
        -3.402823060000000E+38
   654. CELL (1,8,52) THICKNESS <= 0. TOP, BOT:   -3.402823060000000E+38
        -3.402823060000000E+38
   655. CELL (1,8,53) THICKNESS <= 0. TOP, BOT:   -3.402823060000000E+38
        -3.402823060000000E+38
   656. CELL (1,8,54) THICKNESS <= 0. TOP, BOT:   -3.402823060000000E+38
        -3.402823060000000E+38
   657. CELL (1,8,55) THICKNESS <= 0. TOP, BOT:   -3.402823060000000E+38
        -3.402823060000000E+38
   658. CELL (1,8,56) THICKNESS <= 0. TOP, BOT:   -3.402823060000000E+38
        -3.402823060000000E+38
   659. CELL (1,8,57) THICKNESS <= 0. TOP, BOT:   -3.402823060000000E+38
        -3.402823060000000E+38
   660. CELL (1,8,58) THICKNESS <= 0. TOP, BOT:   -3.402823060000000E+38
        -3.402823060000000E+38
   661. CELL (1,8,59) THICKNESS <= 0. TOP, BOT:   -3.402823060000000E+38
        -3.402823060000000E+38
   662. CELL (1,8,60) THICKNESS <= 0. TOP, BOT:   -3.402823060000000E+38
        -3.402823060000000E+38
   663. CELL (1,8,61) THICKNESS <= 0. TOP, BOT:   -3.402823060000000E+38
        -3.402823060000000E+38
   664. CELL (1,8,62) THICKNESS <= 0. TOP, BOT:   -3.402823060000000E+38
        -3.402823060000000E+38
   665. CELL (1,8,63) THICKNESS <= 0. TOP, BOT:   -3.402823060000000E+38
        -3.402823060000000E+38
   666. CELL (1,8,64) THICKNESS <= 0. TOP, BOT:   -3.402823060000000E+38
        -3.402823060000000E+38
   667. CELL (1,8,65) THICKNESS <= 0. TOP, BOT:   -3.402823060000000E+38
        -3.402823060000000E+38
   668. CELL (1,8,66) THICKNESS <= 0. TOP, BOT:   -3.402823060000000E+38
        -3.402823060000000E+38
   669. CELL (1,8,67) THICKNESS <= 0. TOP, BOT:   -3.402823060000000E+38
        -3.402823060000000E+38
   670. CELL (1,8,68) THICKNESS <= 0. TOP, BOT:   -3.402823060000000E+38
        -3.402823060000000E+38
   671. CELL (1,8,69) THICKNESS <= 0. TOP, BOT:   -3.402823060000000E+38
        -3.402823060000000E+38
   672. CELL (1,8,70) THICKNESS <= 0. TOP, BOT:   -3.402823060000000E+38
        -3.402823060000000E+38
   673. CELL (1,8,71) THICKNESS <= 0. TOP, BOT:   -3.402823060000000E+38
        -3.402823060000000E+38
   674. CELL (1,8,72) THICKNESS <= 0. TOP, BOT:   -3.402823060000000E+38
        -3.402823060000000E+38
   675. CELL (1,8,73) THICKNESS <= 0. TOP, BOT:   -3.402823060000000E+38
        -3.402823060000000E+38
   676. CELL (1,8,74) THICKNESS <= 0. TOP, BOT:   -3.402823060000000E+38
        -3.402823060000000E+38
   677. CELL (1,8,75) THICKNESS <= 0. TOP, BOT:   -3.402823060000000E+38
        -3.402823060000000E+38
   678. CELL (1,8,76) THICKNESS <= 0. TOP, BOT:   -3.402823060000000E+38
        -3.402823060000000E+38
   679. CELL (1,8,77) THICKNESS <= 0. TOP, BOT:   -3.402823060000000E+38
        -3.402823060000000E+38
   680. CELL (1,8,78) THICKNESS <= 0. TOP, BOT:   -3.402823060000000E+38
        -3.402823060000000E+38
   681. CELL (1,8,79) THICKNESS <= 0. TOP, BOT:   -3.402823060000000E+38
        -3.402823060000000E+38
   682. CELL (1,8,80) THICKNESS <= 0. TOP, BOT:   -3.402823060000000E+38
        -3.402823060000000E+38
   683. CELL (1,8,81) THICKNESS <= 0. TOP, BOT:   -3.402823060000000E+38
        -3.402823060000000E+38
   684. CELL (1,8,82) THICKNESS <= 0. TOP, BOT:   -3.402823060000000E+38
        -3.402823060000000E+38
   685. CELL (1,8,83) THICKNESS <= 0. TOP, BOT:   -3.402823060000000E+38
        -3.402823060000000E+38
   686. CELL (1,8,84) THICKNESS <= 0. TOP, BOT:   -3.402823060000000E+38
        -3.402823060000000E+38
   687. CELL (1,8,85) THICKNESS <= 0. TOP, BOT:   -3.402823060000000E+38
        -3.402823060000000E+38
   688. CELL (1,8,86) THICKNESS <= 0. TOP, BOT:   -3.402823060000000E+38
        -3.402823060000000E+38
   689. CELL (1,8,87) THICKNESS <= 0. TOP, BOT:   -3.402823060000000E+38
        -3.402823060000000E+38
   690. CELL (1,8,88) THICKNESS <= 0. TOP, BOT:   -3.402823060000000E+38
        -3.402823060000000E+38
   691. CELL (1,8,89) THICKNESS <= 0. TOP, BOT:   -3.402823060000000E+38
        -3.402823060000000E+38
   692. CELL (1,8,90) THICKNESS <= 0. TOP, BOT:   -3.402823060000000E+38
        -3.402823060000000E+38
   693. CELL (1,8,91) THICKNESS <= 0. TOP, BOT:   -3.402823060000000E+38
        -3.402823060000000E+38
   694. CELL (1,8,92) THICKNESS <= 0. TOP, BOT:   -3.402823060000000E+38
        -3.402823060000000E+38
   695. CELL (1,8,93) THICKNESS <= 0. TOP, BOT:   -3.402823060000000E+38
        -3.402823060000000E+38
   696. CELL (1,8,94) THICKNESS <= 0. TOP, BOT:   -3.402823060000000E+38
        -3.402823060000000E+38
   697. CELL (1,8,95) THICKNESS <= 0. TOP, BOT:   -3.402823060000000E+38
        -3.402823060000000E+38
   698. CELL (1,8,96) THICKNESS <= 0. TOP, BOT:   -3.402823060000000E+38
        -3.402823060000000E+38
   699. CELL (1,8,97) THICKNESS <= 0. TOP, BOT:   -3.402823060000000E+38
        -3.402823060000000E+38
   700. CELL (1,8,98) THICKNESS <= 0. TOP, BOT:   -3.402823060000000E+38
        -3.402823060000000E+38
   701. CELL (1,8,99) THICKNESS <= 0. TOP, BOT:   -3.402823060000000E+38
        -3.402823060000000E+38
   702. CELL (1,8,100) THICKNESS <= 0. TOP, BOT:   -3.402823060000000E+38
        -3.402823060000000E+38
   703. CELL (1,8,101) THICKNESS <= 0. TOP, BOT:   -3.402823060000000E+38
        -3.402823060000000E+38
   704. CELL (1,8,102) THICKNESS <= 0. TOP, BOT:   -3.402823060000000E+38
        -3.402823060000000E+38
   705. CELL (1,8,103) THICKNESS <= 0. TOP, BOT:   -3.402823060000000E+38
        -3.402823060000000E+38
   706. CELL (1,8,104) THICKNESS <= 0. TOP, BOT:   -3.402823060000000E+38
        -3.402823060000000E+38
   707. CELL (1,8,105) THICKNESS <= 0. TOP, BOT:   -3.402823060000000E+38
        -3.402823060000000E+38
   708. CELL (1,9,1) THICKNESS <= 0. TOP, BOT:   -3.402823060000000E+38
        -3.402823060000000E+38
   709. CELL (1,9,2) THICKNESS <= 0. TOP, BOT:   -3.402823060000000E+38
        -3.402823060000000E+38
   710. CELL (1,9,3) THICKNESS <= 0. TOP, BOT:   -3.402823060000000E+38
        -3.402823060000000E+38
   711. CELL (1,9,4) THICKNESS <= 0. TOP, BOT:   -3.402823060000000E+38
        -3.402823060000000E+38
   712. CELL (1,9,5) THICKNESS <= 0. TOP, BOT:   -3.402823060000000E+38
        -3.402823060000000E+38
   713. CELL (1,9,6) THICKNESS <= 0. TOP, BOT:   -3.402823060000000E+38
        -3.402823060000000E+38
   714. CELL (1,9,21) THICKNESS <= 0. TOP, BOT:   -3.402823060000000E+38
        -3.402823060000000E+38
   715. CELL (1,9,22) THICKNESS <= 0. TOP, BOT:   -3.402823060000000E+38
        -3.402823060000000E+38
   716. CELL (1,9,23) THICKNESS <= 0. TOP, BOT:   -3.402823060000000E+38
        -3.402823060000000E+38
   717. CELL (1,9,24) THICKNESS <= 0. TOP, BOT:   -3.402823060000000E+38
        -3.402823060000000E+38
   718. CELL (1,9,25) THICKNESS <= 0. TOP, BOT:   -3.402823060000000E+38
        -3.402823060000000E+38
   719. CELL (1,9,26) THICKNESS <= 0. TOP, BOT:   -3.402823060000000E+38
        -3.402823060000000E+38
   720. CELL (1,9,27) THICKNESS <= 0. TOP, BOT:   -3.402823060000000E+38
        -3.402823060000000E+38
[...]
        -3.402823060000000E+38
   813. CELL (1,10,83) THICKNESS <= 0. TOP, BOT:   -3.402823060000000E+38
        -3.402823060000000E+38
   814. CELL (1,10,84) THICKNESS <= 0. TOP, BOT:   -3.402823060000000E+38
        -3.402823060000000E+38
   815. CELL (1,10,85) THICKNESS <= 0. TOP, BOT:   -3.402823060000000E+38
        -3.402823060000000E+38
   816. CELL (1,10,86) THICKNESS <= 0. TOP, BOT:   -3.402823060000000E+38
        -3.402823060000000E+38
   817. CELL (1,10,87) THICKNESS <= 0. TOP, BOT:   -3.402823060000000E+38
        -3.402823060000000E+38
   818. CELL (1,10,88) THICKNESS <= 0. TOP, BOT:   -3.402823060000000E+38
        -3.402823060000000E+38
   819. CELL (1,10,89) THICKNESS <= 0. TOP, BOT:   -3.402823060000000E+38
        -3.402823060000000E+38
   820. CELL (1,10,90) THICKNESS <= 0. TOP, BOT:   -3.402823060000000E+38
        -3.402823060000000E+38
   821. CELL (1,10,91) THICKNESS <= 0. TOP, BOT:   -3.402823060000000E+38
        -3.402823060000000E+38
   822. CELL (1,10,92) THICKNESS <= 0. TOP, BOT:   -3.402823060000000E+38
        -3.402823060000000E+38
   823. CELL (1,10,93) THICKNESS <= 0. TOP, BOT:   -3.402823060000000E+38
        -3.402823060000000E+38
   824. CELL (1,10,94) THICKNESS <= 0. TOP, BOT:   -3.402823060000000E+38
        -3.402823060000000E+38
   825. CELL (1,10,95) THICKNESS <= 0. TOP, BOT:   -3.402823060000000E+38
        -3.402823060000000E+38
   826. CELL (1,10,96) THICKNESS <= 0. TOP, BOT:   -3.402823060000000E+38
        -3.402823060000000E+38
   827. CELL (1,10,97) THICKNESS <= 0. TOP, BOT:   -3.402823060000000E+38
        -3.402823060000000E+38
   828. CELL (1,10,98) THICKNESS <= 0. TOP, BOT:   -3.402823060000000E+38
        -3.402823060000000E+38
   829. CELL (1,10,99) THICKNESS <= 0. TOP, BOT:   -3.402823060000000E+38
        -3.402823060000000E+38
   830. CELL (1,10,100) THICKNESS <= 0. TOP, BOT:   -3.402823060000000E+38
        -3.402823060000000E+38
   831. CELL (1,10,101) THICKNESS <= 0. TOP, BOT:   -3.402823060000000E+38
        -3.402823060000000E+38
   832. CELL (1,10,102) THICKNESS <= 0. TOP, BOT:   -3.402823060000000E+38
        -3.402823060000000E+38
   833. CELL (1,10,103) THICKNESS <= 0. TOP, BOT:   -3.402823060000000E+38
        -3.402823060000000E+38
   834. CELL (1,10,104) THICKNESS <= 0. TOP, BOT:   -3.402823060000000E+38
        -3.402823060000000E+38
   835. CELL (1,10,105) THICKNESS <= 0. TOP, BOT:   -3.402823060000000E+38
        -3.402823060000000E+38
   836. CELL (1,11,1) THICKNESS <= 0. TOP, BOT:   -3.402823060000000E+38
        -3.402823060000000E+38
   837. CELL (1,11,2) THICKNESS <= 0. TOP, BOT:   -3.402823060000000E+38
        -3.402823060000000E+38
   838. CELL (1,11,3) THICKNESS <= 0. TOP, BOT:   -3.402823060000000E+38
        -3.402823060000000E+38
   839. CELL (1,11,4) THICKNESS <= 0. TOP, BOT:   -3.402823060000000E+38
        -3.402823060000000E+38
   840. CELL (1,11,5) THICKNESS <= 0. TOP, BOT:   -3.402823060000000E+38
        -3.402823060000000E+38
   841. CELL (1,11,6) THICKNESS <= 0. TOP, BOT:   -3.402823060000000E+38
        -3.402823060000000E+38
   842. CELL (1,11,7) THICKNESS <= 0. TOP, BOT:   -3.402823060000000E+38
        -3.402823060000000E+38
   843. CELL (1,11,8) THICKNESS <= 0. TOP, BOT:   -3.402823060000000E+38
        -3.402823060000000E+38
   844. CELL (1,11,9) THICKNESS <= 0. TOP, BOT:   -3.402823060000000E+38
        -3.402823060000000E+38
   845. CELL (1,11,10) THICKNESS <= 0. TOP, BOT:   -3.402823060000000E+38
        -3.402823060000000E+38
   846. CELL (1,11,11) THICKNESS <= 0. TOP, BOT:   -3.402823060000000E+38
        -3.402823060000000E+38
   847. CELL (1,11,12) THICKNESS <= 0. TOP, BOT:   -3.402823060000000E+38
        -3.402823060000000E+38
   848. CELL (1,11,13) THICKNESS <= 0. TOP, BOT:   -3.402823060000000E+38
        -3.402823060000000E+38
   849. CELL (1,11,14) THICKNESS <= 0. TOP, BOT:   -3.402823060000000E+38
        -3.402823060000000E+38
   850. CELL (1,11,15) THICKNESS <= 0. TOP, BOT:   -3.402823060000000E+38
        -3.402823060000000E+38
   851. CELL (1,11,16) THICKNESS <= 0. TOP, BOT:   -3.402823060000000E+38
        -3.402823060000000E+38
   852. CELL (1,11,17) THICKNESS <= 0. TOP, BOT:   -3.402823060000000E+38
        -3.402823060000000E+38
   853. CELL (1,11,18) THICKNESS <= 0. TOP, BOT:   -3.402823060000000E+38
        -3.402823060000000E+38
   854. CELL (1,11,19) THICKNESS <= 0. TOP, BOT:   -3.402823060000000E+38
        -3.402823060000000E+38
   855. CELL (1,11,20) THICKNESS <= 0. TOP, BOT:   -3.402823060000000E+38
        -3.402823060000000E+38
   856. CELL (1,11,21) THICKNESS <= 0. TOP, BOT:   -3.402823060000000E+38
        -3.402823060000000E+38
   857. CELL (1,11,22) THICKNESS <= 0. TOP, BOT:   -3.402823060000000E+38
        -3.402823060000000E+38
   858. CELL (1,11,23) THICKNESS <= 0. TOP, BOT:   -3.402823060000000E+38
        -3.402823060000000E+38
   859. CELL (1,11,24) THICKNESS <= 0. TOP, BOT:   -3.402823060000000E+38
        -3.402823060000000E+38
   860. CELL (1,11,25) THICKNESS <= 0. TOP, BOT:   -3.402823060000000E+38
        -3.402823060000000E+38
   861. CELL (1,11,26) THICKNESS <= 0. TOP, BOT:   -3.402823060000000E+38
        -3.402823060000000E+38
   862. CELL (1,11,27) THICKNESS <= 0. TOP, BOT:   -3.402823060000000E+38
        -3.402823060000000E+38
   863. CELL (1,11,28) THICKNESS <= 0. TOP, BOT:   -3.402823060000000E+38
        -3.402823060000000E+38
   864. CELL (1,11,29) THICKNESS <= 0. TOP, BOT:   -3.402823060000000E+38
        -3.402823060000000E+38
   865. CELL (1,11,78) THICKNESS <= 0. TOP, BOT:   -3.402823060000000E+38
        -3.402823060000000E+38
   866. CELL (1,11,79) THICKNESS <= 0. TOP, BOT:   -3.402823060000000E+38
        -3.402823060000000E+38
   867. CELL (1,11,80) THICKNESS <= 0. TOP, BOT:   -3.402823060000000E+38
        -3.402823060000000E+38
   868. CELL (1,11,81) THICKNESS <= 0. TOP, BOT:   -3.402823060000000E+38
        -3.402823060000000E+38
   869. CELL (1,11,82) THICKNESS <= 0. TOP, BOT:   -3.402823060000000E+38
        -3.402823060000000E+38
   870. CELL (1,11,83) THICKNESS <= 0. TOP, BOT:   -3.402823060000000E+38
        -3.402823060000000E+38
   871. CELL (1,11,84) THICKNESS <= 0. TOP, BOT:   -3.402823060000000E+38
        -3.402823060000000E+38
   872. CELL (1,11,85) THICKNESS <= 0. TOP, BOT:   -3.402823060000000E+38
        -3.402823060000000E+38
   873. CELL (1,11,86) THICKNESS <= 0. TOP, BOT:   -3.402823060000000E+38
        -3.402823060000000E+38
   874. CELL (1,11,87) THICKNESS <= 0. TOP, BOT:   -3.402823060000000E+38
        -3.402823060000000E+38
   875. CELL (1,11,88) THICKNESS <= 0. TOP, BOT:   -3.402823060000000E+38
        -3.402823060000000E+38
   876. CELL (1,11,89) THICKNESS <= 0. TOP, BOT:   -3.402823060000000E+38
        -3.402823060000000E+38
   877. CELL (1,11,90) THICKNESS <= 0. TOP, BOT:   -3.402823060000000E+38
        -3.402823060000000E+38
   878. CELL (1,11,91) THICKNESS <= 0. TOP, BOT:   -3.402823060000000E+38
        -3.402823060000000E+38
   879. CELL (1,11,92) THICKNESS <= 0. TOP, BOT:   -3.402823060000000E+38
        -3.402823060000000E+38
   880. CELL (1,11,93) THICKNESS <= 0. TOP, BOT:   -3.402823060000000E+38
        -3.402823060000000E+38
   881. CELL (1,11,94) THICKNESS <= 0. TOP, BOT:   -3.402823060000000E+38
        -3.402823060000000E+38
   882. CELL (1,11,95) THICKNESS <= 0. TOP, BOT:   -3.402823060000000E+38
        -3.402823060000000E+38
   883. CELL (1,11,96) THICKNESS <= 0. TOP, BOT:   -3.402823060000000E+38
        -3.402823060000000E+38
   884. CELL (1,11,97) THICKNESS <= 0. TOP, BOT:   -3.402823060000000E+38
        -3.402823060000000E+38
   885. CELL (1,11,98) THICKNESS <= 0. TOP, BOT:   -3.402823060000000E+38
        -3.402823060000000E+38
   886. CELL (1,11,99) THICKNESS <= 0. TOP, BOT:   -3.402823060000000E+38
        -3.402823060000000E+38
   887. CELL (1,11,100) THICKNESS <= 0. TOP, BOT:   -3.402823060000000E+38
        -3.402823060000000E+38
   888. CELL (1,11,101) THICKNESS <= 0. TOP, BOT:   -3.402823060000000E+38
        -3.402823060000000E+38
   889. CELL (1,11,102) THICKNESS <= 0. TOP, BOT:   -3.402823060000000E+38
        -3.402823060000000E+38
   890. CELL (1,11,103) THICKNESS <= 0. TOP, BOT:   -3.402823060000000E+38
        -3.402823060000000E+38
   891. CELL (1,11,104) THICKNESS <= 0. TOP, BOT:   -3.402823060000000E+38
        -3.402823060000000E+38
   892. CELL (1,11,105) THICKNESS <= 0. TOP, BOT:   -3.402823060000000E+38
        -3.402823060000000E+38
   893. CELL (1,12,1) THICKNESS <= 0. TOP, BOT:   -3.402823060000000E+38
        -3.402823060000000E+38
   894. CELL (1,12,2) THICKNESS <= 0. TOP, BOT:   -3.402823060000000E+38
        -3.402823060000000E+38
   895. CELL (1,12,3) THICKNESS <= 0. TOP, BOT:   -3.402823060000000E+38
        -3.402823060000000E+38
   896. CELL (1,12,4) THICKNESS <= 0. TOP, BOT:   -3.402823060000000E+38
        -3.402823060000000E+38
   897. CELL (1,12,5) THICKNESS <= 0. TOP, BOT:   -3.402823060000000E+38
        -3.402823060000000E+38
   898. CELL (1,12,6) THICKNESS <= 0. TOP, BOT:   -3.402823060000000E+38
        -3.402823060000000E+38
   899. CELL (1,12,7) THICKNESS <= 0. TOP, BOT:   -3.402823060000000E+38
        -3.402823060000000E+38
   900. CELL (1,12,8) THICKNESS <= 0. TOP, BOT:   -3.402823060000000E+38
        -3.402823060000000E+38
   901. CELL (1,12,9) THICKNESS <= 0. TOP, BOT:   -3.402823060000000E+38
        -3.402823060000000E+38
   902. CELL (1,12,10) THICKNESS <= 0. TOP, BOT:   -3.402823060000000E+38
        -3.402823060000000E+38
   903. CELL (1,12,11) THICKNESS <= 0. TOP, BOT:   -3.402823060000000E+38
        -3.402823060000000E+38
   904. CELL (1,12,12) THICKNESS <= 0. TOP, BOT:   -3.402823060000000E+38
        -3.402823060000000E+38
   905. CELL (1,12,13) THICKNESS <= 0. TOP, BOT:   -3.402823060000000E+38
        -3.402823060000000E+38
   906. CELL (1,12,14) THICKNESS <= 0. TOP, BOT:   -3.402823060000000E+38
        -3.402823060000000E+38
   907. CELL (1,12,15) THICKNESS <= 0. TOP, BOT:   -3.402823060000000E+38
        -3.402823060000000E+38
   908. CELL (1,12,16) THICKNESS <= 0. TOP, BOT:   -3.402823060000000E+38
        -3.402823060000000E+38
   909. CELL (1,12,17) THICKNESS <= 0. TOP, BOT:   -3.402823060000000E+38
        -3.402823060000000E+38
   910. CELL (1,12,18) THICKNESS <= 0. TOP, BOT:   -3.402823060000000E+38
        -3.402823060000000E+38
   911. CELL (1,12,19) THICKNESS <= 0. TOP, BOT:   -3.402823060000000E+38
        -3.402823060000000E+38
   912. CELL (1,12,20) THICKNESS <= 0. TOP, BOT:   -3.402823060000000E+38
        -3.402823060000000E+38
   913. CELL (1,12,21) THICKNESS <= 0. TOP, BOT:   -3.402823060000000E+38
        -3.402823060000000E+38
   914. CELL (1,12,22) THICKNESS <= 0. TOP, BOT:   -3.402823060000000E+38
        -3.402823060000000E+38
   915. CELL (1,12,23) THICKNESS <= 0. TOP, BOT:   -3.402823060000000E+38
        -3.402823060000000E+38
   916. CELL (1,12,24) THICKNESS <= 0. TOP, BOT:   -3.402823060000000E+38
        -3.402823060000000E+38
   917. CELL (1,12,25) THICKNESS <= 0. TOP, BOT:   -3.402823060000000E+38
        -3.402823060000000E+38
   918. CELL (1,12,26) THICKNESS <= 0. TOP, BOT:   -3.402823060000000E+38
        -3.402823060000000E+38
   919. CELL (1,12,27) THICKNESS <= 0. TOP, BOT:   -3.402823060000000E+38
        -3.402823060000000E+38
   920. CELL (1,12,28) THICKNESS <= 0. TOP, BOT:   -3.402823060000000E+38
        -3.402823060000000E+38
   921. CELL (1,12,29) THICKNESS <= 0. TOP, BOT:   -3.402823060000000E+38
        -3.402823060000000E+38
   922. CELL (1,12,30) THICKNESS <= 0. TOP, BOT:   -3.402823060000000E+38
        -3.402823060000000E+38
   923. CELL (1,12,31) THICKNESS <= 0. TOP, BOT:   -3.402823060000000E+38
        -3.402823060000000E+38
   924. CELL (1,12,32) THICKNESS <= 0. TOP, BOT:   -3.402823060000000E+38
        -3.402823060000000E+38
   925. CELL (1,12,33) THICKNESS <= 0. TOP, BOT:   -3.402823060000000E+38
        -3.402823060000000E+38
   926. CELL (1,12,34) THICKNESS <= 0. TOP, BOT:   -3.402823060000000E+38
        -3.402823060000000E+38
   927. CELL (1,12,35) THICKNESS <= 0. TOP, BOT:   -3.402823060000000E+38
        -3.402823060000000E+38
   928. CELL (1,12,36) THICKNESS <= 0. TOP, BOT:   -3.402823060000000E+38
        -3.402823060000000E+38
   929. CELL (1,12,37) THICKNESS <= 0. TOP, BOT:   -3.402823060000000E+38
        -3.402823060000000E+38
   930. CELL (1,12,38) THICKNESS <= 0. TOP, BOT:   -3.402823060000000E+38
        -3.402823060000000E+38
   931. CELL (1,12,39) THICKNESS <= 0. TOP, BOT:   -3.402823060000000E+38
        -3.402823060000000E+38
   932. CELL (1,12,40) THICKNESS <= 0. TOP, BOT:   -3.402823060000000E+38
        -3.402823060000000E+38
   933. CELL (1,12,41) THICKNESS <= 0. TOP, BOT:   -3.402823060000000E+38
        -3.402823060000000E+38
   934. CELL (1,12,90) THICKNESS <= 0. TOP, BOT:   -3.402823060000000E+38
        -3.402823060000000E+38
   935. CELL (1,12,91) THICKNESS <= 0. TOP, BOT:   -3.402823060000000E+38
        -3.402823060000000E+38
   936. CELL (1,12,92) THICKNESS <= 0. TOP, BOT:   -3.402823060000000E+38
        -3.402823060000000E+38
   937. CELL (1,12,93) THICKNESS <= 0. TOP, BOT:   -3.402823060000000E+38
        -3.402823060000000E+38
   938. CELL (1,12,94) THICKNESS <= 0. TOP, BOT:   -3.402823060000000E+38
        -3.402823060000000E+38
   939. CELL (1,12,95) THICKNESS <= 0. TOP, BOT:   -3.402823060000000E+38
        -3.402823060000000E+38
   940. CELL (1,12,96) THICKNESS <= 0. TOP, BOT:   -3.402823060000000E+38
        -3.402823060000000E+38
   941. CELL (1,12,97) THICKNESS <= 0. TOP, BOT:   -3.402823060000000E+38
        -3.402823060000000E+38
   942. CELL (1,12,98) THICKNESS <= 0. TOP, BOT:   -3.402823060000000E+38
        -3.402823060000000E+38
   943. CELL (1,12,99) THICKNESS <= 0. TOP, BOT:   -3.402823060000000E+38
        -3.402823060000000E+38
   944. CELL (1,12,100) THICKNESS <= 0. TOP, BOT:   -3.402823060000000E+38
        -3.402823060000000E+38
   945. CELL (1,12,101) THICKNESS <= 0. TOP, BOT:   -3.402823060000000E+38
        -3.402823060000000E+38
   946. CELL (1,12,102) THICKNESS <= 0. TOP, BOT:   -3.402823060000000E+38
        -3.402823060000000E+38
   947. CELL (1,12,103) THICKNESS <= 0. TOP, BOT:   -3.402823060000000E+38
        -3.402823060000000E+38
   948. CELL (1,12,104) THICKNESS <= 0. TOP, BOT:   -3.402823060000000E+38
        -3.402823060000000E+38
   949. CELL (1,12,105) THICKNESS <= 0. TOP, BOT:   -3.402823060000000E+38
        -3.402823060000000E+38
   950. CELL (1,13,1) THICKNESS <= 0. TOP, BOT:   -3.402823060000000E+38
        -3.402823060000000E+38
   951. CELL (1,13,2) THICKNESS <= 0. TOP, BOT:   -3.402823060000000E+38
        -3.402823060000000E+38
   952. CELL (1,13,3) THICKNESS <= 0. TOP, BOT:   -3.402823060000000E+38
        -3.402823060000000E+38
   953. CELL (1,13,4) THICKNESS <= 0. TOP, BOT:   -3.402823060000000E+38
        -3.402823060000000E+38
   954. CELL (1,13,5) THICKNESS <= 0. TOP, BOT:   -3.402823060000000E+38
        -3.402823060000000E+38
   955. CELL (1,13,6) THICKNESS <= 0. TOP, BOT:   -3.402823060000000E+38
        -3.402823060000000E+38
   956. CELL (1,13,7) THICKNESS <= 0. TOP, BOT:   -3.402823060000000E+38
        -3.402823060000000E+38
   957. CELL (1,13,8) THICKNESS <= 0. TOP, BOT:   -3.402823060000000E+38
        -3.402823060000000E+38
   958. CELL (1,13,9) THICKNESS <= 0. TOP, BOT:   -3.402823060000000E+38
        -3.402823060000000E+38
   959. CELL (1,13,10) THICKNESS <= 0. TOP, BOT:   -3.402823060000000E+38
        -3.402823060000000E+38
   960. CELL (1,13,11) THICKNESS <= 0. TOP, BOT:   -3.402823060000000E+38
        -3.402823060000000E+38
   961. CELL (1,13,12) THICKNESS <= 0. TOP, BOT:   -3.402823060000000E+38
        -3.402823060000000E+38
   962. CELL (1,13,13) THICKNESS <= 0. TOP, BOT:   -3.402823060000000E+38
        -3.402823060000000E+38
   963. CELL (1,13,14) THICKNESS <= 0. TOP, BOT:   -3.402823060000000E+38
        -3.402823060000000E+38
   964. CELL (1,13,15) THICKNESS <= 0. TOP, BOT:   -3.402823060000000E+38
        -3.402823060000000E+38
   965. CELL (1,13,16) THICKNESS <= 0. TOP, BOT:   -3.402823060000000E+38
        -3.402823060000000E+38
   966. CELL (1,13,17) THICKNESS <= 0. TOP, BOT:   -3.402823060000000E+38
        -3.402823060000000E+38
   967. CELL (1,13,18) THICKNESS <= 0. TOP, BOT:   -3.402823060000000E+38
        -3.402823060000000E+38
   968. CELL (1,13,19) THICKNESS <= 0. TOP, BOT:   -3.402823060000000E+38
        -3.402823060000000E+38
   969. CELL (1,13,20) THICKNESS <= 0. TOP, BOT:   -3.402823060000000E+38
        -3.402823060000000E+38
   970. CELL (1,13,21) THICKNESS <= 0. TOP, BOT:   -3.402823060000000E+38
        -3.402823060000000E+38
   971. CELL (1,13,22) THICKNESS <= 0. TOP, BOT:   -3.402823060000000E+38
        -3.402823060000000E+38
   972. CELL (1,13,23) THICKNESS <= 0. TOP, BOT:   -3.402823060000000E+38
        -3.402823060000000E+38
   973. CELL (1,13,24) THICKNESS <= 0. TOP, BOT:   -3.402823060000000E+38
        -3.402823060000000E+38
   974. CELL (1,13,25) THICKNESS <= 0. TOP, BOT:   -3.402823060000000E+38
        -3.402823060000000E+38
   975. CELL (1,13,26) THICKNESS <= 0. TOP, BOT:   -3.402823060000000E+38
        -3.402823060000000E+38
   976. CELL (1,13,27) THICKNESS <= 0. TOP, BOT:   -3.402823060000000E+38
        -3.402823060000000E+38
   977. CELL (1,13,28) THICKNESS <= 0. TOP, BOT:   -3.402823060000000E+38
        -3.402823060000000E+38
   978. CELL (1,13,29) THICKNESS <= 0. TOP, BOT:   -3.402823060000000E+38
        -3.402823060000000E+38
   979. CELL (1,13,30) THICKNESS <= 0. TOP, BOT:   -3.402823060000000E+38
        -3.402823060000000E+38
   980. CELL (1,13,31) THICKNESS <= 0. TOP, BOT:   -3.402823060000000E+38
        -3.402823060000000E+38
   981. CELL (1,13,32) THICKNESS <= 0. TOP, BOT:   -3.402823060000000E+38
        -3.402823060000000E+38
   982. CELL (1,13,33) THICKNESS <= 0. TOP, BOT:   -3.402823060000000E+38
        -3.402823060000000E+38
   983. CELL (1,13,34) THICKNESS <= 0. TOP, BOT:   -3.402823060000000E+38
        -3.402823060000000E+38
   984. CELL (1,13,35) THICKNESS <= 0. TOP, BOT:   -3.402823060000000E+38
        -3.402823060000000E+38
   985. CELL (1,13,36) THICKNESS <= 0. TOP, BOT:   -3.402823060000000E+38
        -3.402823060000000E+38
   986. CELL (1,13,37) THICKNESS <= 0. TOP, BOT:   -3.402823060000000E+38
        -3.402823060000000E+38
   987. CELL (1,13,38) THICKNESS <= 0. TOP, BOT:   -3.402823060000000E+38
        -3.402823060000000E+38
   988. CELL (1,13,39) THICKNESS <= 0. TOP, BOT:   -3.402823060000000E+38
        -3.402823060000000E+38
   989. CELL (1,13,40) THICKNESS <= 0. TOP, BOT:   -3.402823060000000E+38
        -3.402823060000000E+38
   990. CELL (1,13,41) THICKNESS <= 0. TOP, BOT:   -3.402823060000000E+38
        -3.402823060000000E+38
   991. CELL (1,13,42) THICKNESS <= 0. TOP, BOT:   -3.402823060000000E+38
        -3.402823060000000E+38
   992. CELL (1,13,43) THICKNESS <= 0. TOP, BOT:   -3.402823060000000E+38
        -3.402823060000000E+38
   993. CELL (1,13,44) THICKNESS <= 0. TOP, BOT:   -3.402823060000000E+38
        -3.402823060000000E+38
   994. CELL (1,13,45) THICKNESS <= 0. TOP, BOT:   -3.402823060000000E+38
        -3.402823060000000E+38
   995. CELL (1,13,46) THICKNESS <= 0. TOP, BOT:   -3.402823060000000E+38
        -3.402823060000000E+38
   996. CELL (1,13,47) THICKNESS <= 0. TOP, BOT:   -3.402823060000000E+38
        -3.402823060000000E+38
   997. CELL (1,13,48) THICKNESS <= 0. TOP, BOT:   -3.402823060000000E+38
        -3.402823060000000E+38
   998. CELL (1,13,49) THICKNESS <= 0. TOP, BOT:   -3.402823060000000E+38
        -3.402823060000000E+38
   999. CELL (1,13,50) THICKNESS <= 0. TOP, BOT:   -3.402823060000000E+38
        -3.402823060000000E+38
  1000. CELL (1,13,51) THICKNESS <= 0. TOP, BOT:   -3.402823060000000E+38
        -3.402823060000000E+38

 3616 additional error(s) detected but not printed.

UNIT ERROR REPORT:

  1. ERROR OCCURRED WHILE READING FILE
     'd:\MW\DATA\LUMENS\LUMENS_PEAT\TESTING\FloPy\FloPy_LUMENS\testing_peat_mo
     dule\Model\peat_testing_0.dis'
